@<TRIPOS>MOLECULE
L54
   44    47     1     0     0
SMALL
resp


@<TRIPOS>ATOM
      1 O1           3.6010   -50.1430     7.0950 o          1 L54      -0.790991
      2 C1           2.9950   -49.0880     6.7720 c          1 L54       0.874245
      3 O2           3.5640   -47.9830     6.7380 o          1 L54      -0.790991
      4 C2           1.5550   -49.1830     6.4460 cc         1 L54       0.021470
      5 C3          -0.4160   -50.3310     6.3670 ca         1 L54       0.277858
      6 C4          -1.4600   -51.2730     6.4650 ca         1 L54      -0.275816
      7 C5          -2.7720   -50.8650     6.1350 ca         1 L54       0.053082
      8 C6          -3.0150   -49.5600     5.6850 ca         1 L54      -0.188260
      9 C7          -1.9720   -48.6270     5.5970 ca         1 L54      -0.228641
     10 C8          -0.6360   -48.9890     5.9460 ca         1 L54       0.024124
     11 C9           0.6050   -48.2700     6.0110 cd         1 L54      -0.144460
     12 C10          0.7930   -46.8040     5.7030 c3         1 L54       0.070721
     13 C11          0.7660   -45.9150     6.9620 c3         1 L54      -0.008326
     14 C12         -0.4550   -46.1430     7.8720 c3         1 L54      -0.172342
     15 O3          -1.6480   -45.7970     7.1770 os         1 L54      -0.249393
     16 C13         -2.8650   -46.0090     7.8010 ca         1 L54       0.229457
     17 C14         -5.3920   -46.3960     9.0420 ca         1 L54      -0.403772
     18 C15         -4.2120   -46.7520     9.7090 ca         1 L54      -0.082313
     19 C16         -2.9640   -46.5640     9.0970 ca         1 L54      -0.290877
     20 CL3         -4.0630   -51.9830     6.3230 cl         1 L54      -0.189956
     21 H1          -1.2660   -52.2720     6.8070 ha         1 L54       0.170572
     22 H3          -4.0230   -49.2610     5.4250 ha         1 L54       0.139208
     23 H4          -2.1800   -47.6180     5.2860 ha         1 L54       0.184103
     24 H5          -0.0000   -46.4780     5.0290 hc         1 L54       0.001147
     25 H6           1.7310   -46.6450     5.1620 hc         1 L54       0.001147
     26 H7           0.8100   -44.8660     6.6680 hc         1 L54       0.047109
     27 H8           1.6730   -46.1130     7.5350 hc         1 L54       0.047109
     28 H9          -0.3610   -45.5320     8.7700 h1         1 L54       0.122973
     29 H10         -0.4710   -47.1850     8.1900 h1         1 L54       0.122973
     30 H11         -2.0870   -46.8540     9.6460 ha         1 L54       0.154862
     31 H12         -4.2660   -47.1680    10.7000 ha         1 L54       0.144790
     32 H13         -6.3460   -46.5390     9.5260 ha         1 L54       0.173661
     33 C17         -5.3220   -45.8540     7.7420 ca         1 L54       0.286720
     34 C18         -4.0590   -45.6660     7.1240 ca         1 L54       0.006739
     35 C19         -4.0090   -45.1260     5.8150 ca         1 L54      -0.208978
     36 C20         -5.1960   -44.7670     5.1490 ca         1 L54      -0.143792
     37 C21         -6.4460   -44.9620     5.7680 ca         1 L54      -0.125591
     38 C22         -6.5090   -45.5050     7.0670 ca         1 L54      -0.291069
     39 N1           0.9430   -50.4140     6.6340 na         1 L54      -0.522906
     40 H14         -3.0570   -44.9740     5.3240 ha         1 L54       0.157594
     41 H15         -5.1460   -44.3460     4.1530 ha         1 L54       0.130155
     42 H16         -7.3540   -44.6860     5.2490 ha         1 L54       0.131301
     43 H17         -7.4690   -45.6480     7.5390 ha         1 L54       0.152316
     44 H            1.4730   -51.2280     6.9600 hn         1 L54       0.383039
@<TRIPOS>BOND
     1     1     2 1   
     2     2     3 1   
     3     2     4 1   
     4     4    11 2   
     5     4    39 1   
     6     5     6 ar  
     7     5    10 ar  
     8     5    39 1   
     9     6     7 ar  
    10     6    21 1   
    11     7     8 ar  
    12     7    20 1   
    13     8     9 ar  
    14     8    22 1   
    15     9    10 ar  
    16     9    23 1   
    17    10    11 1   
    18    11    12 1   
    19    12    13 1   
    20    12    24 1   
    21    12    25 1   
    22    13    14 1   
    23    13    26 1   
    24    13    27 1   
    25    14    15 1   
    26    14    28 1   
    27    14    29 1   
    28    15    16 1   
    29    16    19 ar  
    30    16    34 ar  
    31    17    18 ar  
    32    17    32 1   
    33    17    33 ar  
    34    18    19 ar  
    35    18    31 1   
    36    19    30 1   
    37    33    34 ar  
    38    33    38 ar  
    39    34    35 ar  
    40    35    36 ar  
    41    35    40 1   
    42    36    37 ar  
    43    36    41 1   
    44    37    38 ar  
    45    37    42 1   
    46    38    43 1   
    47    39    44 1   
@<TRIPOS>SUBSTRUCTURE
     1 L54         1 TEMP              0 ****  ****    0 ROOT
