@<TRIPOS>MOLECULE
L85
   63    66     1     0     0
SMALL
resp


@<TRIPOS>ATOM
      1  C          41.3040    13.2040    13.4630 c3         1 L85      -0.531336
      2  C6         42.1050    13.7640    14.6030 cc         1 L85       0.314340
      3  C3         42.5070    15.0960    14.5540 cc         1 L85       0.126579
      4  O3         42.1500    15.9430    13.5630 os         1 L85      -0.367232
      5  C2         41.1090    16.8480    13.9110 c3         1 L85       0.169617
      6  C1         40.5930    17.5870    12.6740 c          1 L85       0.913525
      7  O2         41.2440    17.4780    11.6100 o          1 L85      -0.861630
      8  O1         39.5310    18.2340    12.8070 o          1 L85      -0.861630
      9  C4         43.3220    15.4160    15.6300 cd         1 L85      -0.099002
     10  C7         44.0360    16.6610    16.0000 c          1 L85       0.839784
     11  O5         44.7190    16.6730    17.0480 o          1 L85      -0.777812
     12  O4         43.9410    17.6670    15.2620 o          1 L85      -0.777812
     13  S1         43.4980    14.0500    16.7180 ss         1 L85      -0.149556
     14  C5         42.4740    13.0430    15.7310 cd         1 L85      -0.389696
     15  C8         42.1340    11.6810    16.1190 ca         1 L85       0.348655
     16  C9         43.0990    10.8230    16.6550 ca         1 L85      -0.200173
     17  C10        42.7730     9.5140    17.0060 ca         1 L85      -0.174223
     18  C11        41.4770     9.0400    16.8070 ca         1 L85      -0.358540
     19  C12        40.4940     9.8790    16.2660 ca         1 L85       0.401285
     20  N1         39.1730     9.4610    16.0230 nh         1 L85      -0.878386
     21  CK1        38.8800     8.0710    15.6820 c3         1 L85       0.427298
     22  CK2        37.3500     7.8630    15.5710 c3         1 L85      -0.350741
     23  CK3        36.9750     6.4540    15.0730 c3         1 L85       0.173284
     24  NK         37.7100     6.1240    13.8430 n3         1 L85      -0.402684
     25  SR         36.9760     5.2050    12.5890 s6         1 L85       1.114731
     26  OR2        37.8360     5.3260    11.4040 o          1 L85      -0.575206
     27  OR1        35.5550     5.5860    12.5170 o          1 L85      -0.575206
     28 CV14        37.1040     3.4730    13.2180 c3         1 L85      -0.243927
     29 CV15        36.7140     2.5270    12.1000 ca         1 L85       0.140975
     30 CV16        35.3720     2.1870    11.9060 ca         1 L85      -0.177874
     31 CV17        35.0070     1.3510    10.8510 ca         1 L85      -0.139098
     32 CV18        35.9840     0.8540     9.9890 ca         1 L85      -0.138954
     33 CV19        37.3260     1.1810    10.1830 ca         1 L85      -0.139098
     34 CV20        37.6910     2.0150    11.2400 ca         1 L85      -0.177874
     35  CK4        39.1750     6.2320    13.9220 c3         1 L85       0.173284
     36  CK5        39.5890     7.6410    14.3720 c3         1 L85      -0.350741
     37  C13        40.8300    11.1970    15.9490 ca         1 L85      -0.318922
     38  HX1        40.7760    13.9860    12.9180 hc         1 L85       0.131065
     39  HX2        41.9460    12.6880    12.7490 hc         1 L85       0.131065
     40  HX3        40.5530    12.4940    13.8110 hc         1 L85       0.131065
     41  H1         40.2650    16.3320    14.3730 h1         1 L85      -0.008395
     42  H2         41.4850    17.5700    14.6360 h1         1 L85      -0.008395
     43  H3         44.1100    11.1710    16.8070 ha         1 L85       0.131907
     44  H4         43.5250     8.8660    17.4320 ha         1 L85       0.139890
     45  H5         41.2420     8.0210    17.0770 ha         1 L85       0.175414
     46  HN2        38.4550    10.1710    16.0360 hn         1 L85       0.378338
     47 HK11        39.2590     7.4690    16.5080 h1         1 L85       0.007145
     48 HK21        36.8770     8.0460    16.5360 hc         1 L85       0.129388
     49 HK22        36.9350     8.6030    14.8870 hc         1 L85       0.129388
     50 HK31        37.2040     5.6980    15.8230 h1         1 L85       0.021600
     51 HK32        35.9000     6.3860    14.9020 h1         1 L85       0.021600
     52 HV13        38.1420     3.3070    13.5060 h1         1 L85       0.086135
     53 HV14        36.5000     3.3810    14.1210 h1         1 L85       0.086135
     54 HV15        34.6110     2.5600    12.5770 ha         1 L85       0.150621
     55 HV16        33.9700     1.0900    10.7040 ha         1 L85       0.135265
     56 HV17        35.7020     0.2160     9.1650 ha         1 L85       0.129188
     57 HV18        38.0790     0.7890     9.5150 ha         1 L85       0.135265
     58 HV19        38.7330     2.2590    11.3920 ha         1 L85       0.150621
     59 HK41        39.5250     5.4660    14.6130 h1         1 L85       0.021600
     60 HK42        39.6130     5.9830    12.9550 h1         1 L85       0.021600
     61 HK52        39.3500     8.3540    13.5830 hc         1 L85       0.129388
     62 HK51        40.6710     7.6850    14.4990 hc         1 L85       0.129388
     63  H6         40.0950    11.8770    15.5560 ha         1 L85       0.187715
@<TRIPOS>BOND
     1     1     2 1   
     2     1    38 1   
     3     1    39 1   
     4     1    40 1   
     5     2     3 1   
     6     2    14 2   
     7     3     4 1   
     8     3     9 2   
     9     4     5 1   
    10     5     6 1   
    11     5    41 1   
    12     5    42 1   
    13     6     7 1   
    14     6     8 1   
    15     9    10 1   
    16     9    13 1   
    17    10    11 1   
    18    10    12 1   
    19    13    14 1   
    20    14    15 1   
    21    15    16 ar  
    22    15    37 ar  
    23    16    17 ar  
    24    16    43 1   
    25    17    18 ar  
    26    17    44 1   
    27    18    19 ar  
    28    18    45 1   
    29    19    20 1   
    30    19    37 ar  
    31    20    21 1   
    32    20    46 1   
    33    21    22 1   
    34    21    36 1   
    35    21    47 1   
    36    22    23 1   
    37    22    48 1   
    38    22    49 1   
    39    23    24 1   
    40    23    50 1   
    41    23    51 1   
    42    24    25 1   
    43    24    35 1   
    44    25    26 2   
    45    25    27 2   
    46    25    28 1   
    47    28    29 1   
    48    28    52 1   
    49    28    53 1   
    50    29    30 ar  
    51    29    34 ar  
    52    30    31 ar  
    53    30    54 1   
    54    31    32 ar  
    55    31    55 1   
    56    32    33 ar  
    57    32    56 1   
    58    33    34 ar  
    59    33    57 1   
    60    34    58 1   
    61    35    36 1   
    62    35    59 1   
    63    35    60 1   
    64    36    61 1   
    65    36    62 1   
    66    37    63 1   
@<TRIPOS>SUBSTRUCTURE
     1 L85         1 TEMP              0 ****  ****    0 ROOT
