@<TRIPOS>MOLECULE
L35
   41    43     1     0     0
SMALL
resp


@<TRIPOS>ATOM
      1 O1           3.5650   -47.8110     6.2800 o          1 L35      -0.796964
      2 C1           3.0310   -48.8240     6.8000 c          1 L35       0.880410
      3 O2           3.6630   -49.5720     7.5810 o          1 L35      -0.796964
      4 C2           1.6180   -49.1520     6.4790 cc         1 L35       0.058926
      5 C3          -0.2220   -50.4970     6.5940 ca         1 L35       0.345191
      6 C4          -1.1820   -51.5030     6.8460 ca         1 L35      -0.372662
      7 C5          -2.4630   -51.4000     6.2700 ca         1 L35      -0.120620
      8 C6          -2.7770   -50.2880     5.4590 ca         1 L35      -0.250698
      9 C7          -1.8230   -49.2850     5.2250 ca         1 L35      -0.216138
     10 C8          -0.5250   -49.3640     5.7850 ca         1 L35       0.079396
     11 C9           0.6490   -48.5160     5.7430 cd         1 L35      -0.316952
     12 C10          0.7690   -47.1900     5.0380 c3         1 L35       0.156028
     13 C11          0.8370   -45.9990     6.0190 c3         1 L35       0.068746
     14 C12         -0.4250   -45.8460     6.8780 c3         1 L35      -0.025518
     15 O3          -1.5110   -45.4320     6.0570 os         1 L35      -0.498972
     16 C13         -2.7180   -45.2210     6.6770 ca         1 L35       0.656011
     17 C16         -3.0810   -45.7920     7.9230 ca         1 L35      -0.579623
     18 C15         -4.3340   -45.5350     8.5140 ca         1 L35       0.366169
     19 C14         -5.2350   -44.6600     7.8590 ca         1 L35      -0.189298
     20 C17         -4.8950   -44.1090     6.6070 ca         1 L35       0.010100
     21 C18         -3.6500   -44.3990     6.0190 ca         1 L35      -0.473178
     22 CL1         -6.7600   -44.2480     8.5600 cl         1 L35      -0.147767
     23 H1          -0.9320   -52.3460     7.4730 ha         1 L35       0.173750
     24 H2          -3.2040   -52.1630     6.4560 ha         1 L35       0.119444
     25 H3          -3.7610   -50.2030     5.0260 ha         1 L35       0.132547
     26 H4          -2.0760   -48.4340     4.6100 ha         1 L35       0.162305
     27 H5          -0.0640   -47.0510     4.3500 hc         1 L35       0.011936
     28 H6           1.6700   -47.1960     4.4250 hc         1 L35       0.011936
     29 H7           1.0080   -45.0790     5.4600 hc         1 L35      -0.003366
     30 H8           1.6920   -46.1050     6.6890 hc         1 L35      -0.003366
     31 H9          -0.2490   -45.0930     7.6500 h1         1 L35       0.103249
     32 H10         -0.6240   -46.7920     7.3800 h1         1 L35       0.103249
     33 H11         -2.4110   -46.4590     8.4420 ha         1 L35       0.223909
     34 H19         -3.4100   -43.9700     5.0600 ha         1 L35       0.204199
     35 H22         -5.5900   -43.4580     6.0980 ha         1 L35       0.139493
     36 N1           1.0880   -50.3280     6.9940 na         1 L35      -0.557247
     37 H            1.6570   -50.9320     7.5790 hn         1 L35       0.384237
     38 CC1         -4.6700   -46.2370     9.8280 c3         1 L35      -0.363038
     39 HC1         -5.6650   -45.9870    10.2010 hc         1 L35       0.107047
     40 HC2         -4.6290   -47.3190     9.6860 hc         1 L35       0.107047
     41 HC3         -3.9430   -45.9810    10.6000 hc         1 L35       0.107047
@<TRIPOS>BOND
     1     1     2 1   
     2     2     3 1   
     3     2     4 1   
     4     4    11 2   
     5     4    36 1   
     6     5     6 ar  
     7     5    10 ar  
     8     5    36 1   
     9     6     7 ar  
    10     6    23 1   
    11     7     8 ar  
    12     7    24 1   
    13     8     9 ar  
    14     8    25 1   
    15     9    10 ar  
    16     9    26 1   
    17    10    11 1   
    18    11    12 1   
    19    12    13 1   
    20    12    27 1   
    21    12    28 1   
    22    13    14 1   
    23    13    29 1   
    24    13    30 1   
    25    14    15 1   
    26    14    31 1   
    27    14    32 1   
    28    15    16 1   
    29    16    17 ar  
    30    16    21 ar  
    31    17    18 ar  
    32    17    33 1   
    33    18    19 ar  
    34    18    38 1   
    35    19    20 ar  
    36    19    22 1   
    37    20    21 ar  
    38    20    35 1   
    39    21    34 1   
    40    36    37 1   
    41    38    39 1   
    42    38    40 1   
    43    38    41 1   
@<TRIPOS>SUBSTRUCTURE
     1 L35         1 TEMP              0 ****  ****    0 ROOT
