@<TRIPOS>MOLECULE
L7F
   43    46     1     0     0
SMALL
resp


@<TRIPOS>ATOM
      1 C1          11.7870    -2.3690     1.0810 c3         1 L7F      -0.330081
      2 N1          13.1390    -2.6650     0.5890 n          1 L7F      -0.145892
      3 C2          14.2720    -2.5930     1.3020 cz         1 L7F       0.707846
      4 N2          14.3740    -2.3190     2.6080 nh         1 L7F      -0.941421
      5 N3          15.3400    -2.8500     0.5490 nh         1 L7F      -0.498433
      6 C3          15.0020    -3.1740    -0.8290 c3         1 L7F      -0.079897
      7 C4          15.5500    -2.1170    -1.8050 ca         1 L7F       0.080962
      8 C5          16.1750    -2.4940    -3.0180 ca         1 L7F      -0.174368
      9 C6          16.6120    -1.5160    -3.9230 ca         1 L7F      -0.150116
     10 C7          16.4090    -0.1560    -3.6430 ca         1 L7F      -0.078520
     11 C8          15.8120     0.2670    -2.4360 cp         1 L7F      -0.029981
     12 C9          15.5760     1.7080    -2.1750 cp         1 L7F      -0.190648
     13 C10         15.3710     2.6230    -3.2330 ca         1 L7F       0.413525
     14 N11         15.0910     3.9310    -3.0640 nb         1 L7F      -0.632789
     15 C12         15.0100     4.4070    -1.8090 ca         1 L7F       0.411584
     16 C13         15.2270     3.6080    -0.6780 ca         1 L7F      -0.299263
     17 CV1         15.1480     4.1900     0.6470 cg         1 L7F       0.376203
     18 NV1         15.0880     4.6560     1.7030 n1         1 L7F      -0.443216
     19 C14         15.5210     2.2440    -0.8680 ca         1 L7F       0.098768
     20 C15         15.4070    -0.7330    -1.5200 ca         1 L7F      -0.114723
     21 CA1         15.5580    -4.5840    -1.0990 cx         1 L7F      -0.222559
     22 CA2         14.8990    -5.8590    -0.6070 cx         1 L7F      -0.231441
     23 CA3         14.9620    -5.5650    -2.0860 cx         1 L7F      -0.231441
     24 C16         13.4650    -3.0500    -0.7490 c          1 L7F       0.608878
     25 O1          12.6340    -3.2050    -1.6490 o          1 L7F      -0.430827
     26 H1          11.6500    -2.7580     2.0900 h1         1 L7F       0.169996
     27 H2          11.6360    -1.2900     1.1050 h1         1 L7F       0.169996
     28 H3          11.0200    -2.8060     0.4400 h1         1 L7F       0.169996
     29 H4          13.5960    -2.0530     3.2090 hn         1 L7F       0.474814
     30 H5          16.3060    -2.8320     0.8840 hn         1 L7F       0.412624
     31 H6          16.3240    -3.5280    -3.2920 ha         1 L7F       0.160292
     32 H7          17.0860    -1.8070    -4.8500 ha         1 L7F       0.174451
     33 H8          16.7170     0.5620    -4.3860 ha         1 L7F       0.145566
     34 H9          15.3880     2.2930    -4.2600 h4         1 L7F       0.061624
     35 H11         14.7670     5.4560    -1.7110 h4         1 L7F       0.093367
     36 H12         15.7080     1.6130    -0.0160 ha         1 L7F       0.134718
     37 H13         14.9270    -0.4330    -0.6000 ha         1 L7F       0.083082
     38 HA1         16.6440    -4.6020    -1.0410 hc         1 L7F       0.212096
     39 HA2         15.5490    -6.6460    -0.2310 hc         1 L7F       0.147603
     40 HA3         13.9220    -5.8030    -0.1310 hc         1 L7F       0.147603
     41 HA4         14.0280    -5.3110    -2.5720 hc         1 L7F       0.147603
     42 HA5         15.6530    -6.1500    -2.6920 hc         1 L7F       0.147603
     43 H14         15.2970    -2.3100     3.0420 hn         1 L7F       0.474814
@<TRIPOS>BOND
     1     1     2 1   
     2     1    26 1   
     3     1    27 1   
     4     1    28 1   
     5     2     3 2   
     6     2    24 1   
     7     3     4 1   
     8     3     5 1   
     9     4    29 1   
    10     4    43 1   
    11     5     6 1   
    12     5    30 1   
    13     6     7 1   
    14     6    21 1   
    15     6    24 1   
    16     7     8 ar  
    17     7    20 ar  
    18     8     9 ar  
    19     8    31 1   
    20     9    10 ar  
    21     9    32 1   
    22    10    11 ar  
    23    10    33 1   
    24    11    12 1   
    25    11    20 ar  
    26    12    13 ar  
    27    12    19 ar  
    28    13    14 ar  
    29    13    34 1   
    30    14    15 ar  
    31    15    16 ar  
    32    15    35 1   
    33    16    17 1   
    34    16    19 ar  
    35    17    18 3   
    36    19    36 1   
    37    20    37 1   
    38    21    22 1   
    39    21    23 1   
    40    21    38 1   
    41    22    23 1   
    42    22    39 1   
    43    22    40 1   
    44    23    41 1   
    45    23    42 1   
    46    24    25 2   
@<TRIPOS>SUBSTRUCTURE
     1 L7F         1 TEMP              0 ****  ****    0 ROOT
