@<TRIPOS>MOLECULE
2FF
   49    52     1     0     0
SMALL
resp


@<TRIPOS>ATOM
      1 C5           38.260     36.710     17.010 ca         1 2FF      -0.512675
      2 C6           34.540     34.970     21.180 c          1 2FF       0.644456
      3 C7           37.590     36.180     18.130 ca         1 2FF       0.378076
      4 C8           34.040     38.970     23.730 ca         1 2FF       1.145823
      5 C10          34.800     37.810     21.440 ca         1 2FF      -0.422608
      6 C11          35.250     37.120     20.230 cc         1 2FF      -0.205986
      7 C12          37.620     36.740     15.750 ca         1 2FF       0.465240
      8 C13          36.320     36.210     15.620 ca         1 2FF      -0.405323
      9 C14          35.670     35.660     16.740 ca         1 2FF      -0.143260
     10 C15          34.300     37.030     22.510 ca         1 2FF       0.512404
     11 C16          34.850     39.200     21.610 ca         1 2FF       0.469328
     12 C17          35.160     35.780     20.120 cd         1 2FF       0.097062
     13 C18          36.290     35.660     18.000 ca         1 2FF       0.147974
     14 C19          33.660     34.830     23.460 c3         1 2FF      -0.220062
     15 F1           38.190     36.190     19.320 f          1 2FF      -0.184852
     16 O2           35.650     35.060     19.050 os         1 2FF      -0.319352
     17 N1           34.470     39.790     22.770 nb         1 2FF      -0.864694
     18 O3           34.320     33.770     21.020 o          1 2FF      -0.562314
     19 N2           34.210     35.610     22.340 n          1 2FF      -0.168798
     20 N3           33.930     37.650     23.650 nb         1 2FF      -0.703632
     21 N4           33.670     39.560     24.920 nh         1 2FF      -0.967470
     22 H9           39.250     37.110     17.110 ha         1 2FF       0.247584
     23 H11          35.700     37.730     19.460 ha         1 2FF       0.161073
     24 H12          35.830     36.220     14.660 ha         1 2FF       0.217910
     25 H13          34.690     35.230     16.620 ha         1 2FF       0.195855
     26 H14          35.210     39.850     20.830 h4         1 2FF       0.095084
     27 H15          34.050     35.180     24.410 h1         1 2FF       0.112699
     28 H16          32.580     34.910     23.480 h1         1 2FF       0.112699
     29 H17          33.920     33.770     23.420 h1         1 2FF       0.112699
     30 H18          33.790     40.560     24.970 hn         1 2FF       0.410611
     31 F2           38.230     37.270     14.700 f          1 2FF      -0.213895
     32 EC2          32.380     39.340     28.500 c3         1 2FF      -0.143430
     33 EC1          32.880     39.990     27.200 c3         1 2FF      -0.193669
     34 C9           33.160     38.930     26.120 c3         1 2FF       0.528625
     35 EC4          34.160     37.880     26.630 c3         1 2FF      -0.193669
     36 EC3          33.670     37.230     27.930 c3         1 2FF      -0.143430
     37 CD1          33.390     38.290     29.010 c3         1 2FF       0.406343
     38 OD1          32.890     37.680     30.180 oh         1 2FF      -0.735887
     39 EH3          31.400     38.850     28.320 hc         1 2FF       0.060331
     40 EH4          32.220     40.120     29.280 hc         1 2FF       0.060331
     41 EH1          33.810     40.570     27.400 hc         1 2FF       0.054792
     42 EH2          32.120     40.720     26.820 hc         1 2FF       0.054792
     43 H10          32.200     38.420     25.840 h1         1 2FF      -0.015712
     44 EH7          34.330     37.100     25.850 hc         1 2FF       0.054792
     45 EH8          35.150     38.370     26.810 hc         1 2FF       0.054792
     46 EH5          32.730     36.650     27.730 hc         1 2FF       0.060331
     47 EH6          34.420     36.500     28.310 hc         1 2FF       0.060331
     48 HD1          34.340     38.800     29.290 h1         1 2FF      -0.029701
     49 HD2          33.520     37.030     30.490 ho         1 2FF       0.428382
@<TRIPOS>BOND
     1     1     3 ar  
     2     1     7 ar  
     3     1    22 1   
     4     2    12 1   
     5     2    18 2   
     6     2    19 1   
     7     3    13 ar  
     8     3    15 1   
     9     4    17 ar  
    10     4    20 ar  
    11     4    21 1   
    12     5     6 1   
    13     5    10 ar  
    14     5    11 ar  
    15     6    12 2   
    16     6    23 1   
    17     7     8 ar  
    18     7    31 1   
    19     8     9 ar  
    20     8    24 1   
    21     9    13 ar  
    22     9    25 1   
    23    10    19 1   
    24    10    20 ar  
    25    11    17 ar  
    26    11    26 1   
    27    12    16 1   
    28    13    16 1   
    29    14    19 1   
    30    14    27 1   
    31    14    28 1   
    32    14    29 1   
    33    21    30 1   
    34    21    34 1   
    35    32    33 1   
    36    32    37 1   
    37    32    39 1   
    38    32    40 1   
    39    33    34 1   
    40    33    41 1   
    41    33    42 1   
    42    34    35 1   
    43    34    43 1   
    44    35    36 1   
    45    35    44 1   
    46    35    45 1   
    47    36    37 1   
    48    36    46 1   
    49    36    47 1   
    50    37    38 1   
    51    37    48 1   
    52    38    49 1   
@<TRIPOS>SUBSTRUCTURE
     1 2FF         1 TEMP              0 ****  ****    0 ROOT
