@<TRIPOS>MOLECULE
L47
   43    46     1     0     0
SMALL
resp


@<TRIPOS>ATOM
      1 O1           3.8690   -50.1190     7.0930 o          1 L47      -0.797571
      2 C1           3.1190   -49.1590     6.7950 c          1 L47       0.881294
      3 O2           3.5530   -47.9840     6.7210 o          1 L47      -0.797571
      4 C2           1.6860   -49.4320     6.5290 cc         1 L47       0.057490
      5 C3          -0.0810   -50.8760     6.3520 ca         1 L47       0.342122
      6 C4          -0.9510   -51.9840     6.3180 ca         1 L47      -0.373433
      7 C5          -2.3180   -51.7850     6.0390 ca         1 L47      -0.117449
      8 C6          -2.8020   -50.4800     5.8110 ca         1 L47      -0.253531
      9 C7          -1.9250   -49.3780     5.8610 ca         1 L47      -0.220656
     10 C8          -0.5420   -49.5480     6.1270 ca         1 L47       0.083149
     11 C9           0.5820   -48.6540     6.2490 cd         1 L47      -0.312139
     12 C10          0.5070   -47.1630     6.1420 c3         1 L47       0.130307
     13 C11          0.1150   -46.5410     7.4890 c3         1 L47       0.103892
     14 C12         -0.4070   -45.1040     7.3460 c3         1 L47      -0.057287
     15 O3          -1.5470   -45.0520     6.4950 os         1 L47      -0.495183
     16 C13         -2.8070   -45.2690     7.0110 ca         1 L47       0.530200
     17 C17         -5.2210   -45.1830     6.5880 ca         1 L47      -0.346655
     18 C18         -3.8920   -45.0080     6.1500 ca         1 L47      -0.276513
     19 H1          -0.5740   -52.9770     6.5000 ha         1 L47       0.173862
     20 H2          -2.9950   -52.6270     6.0060 ha         1 L47       0.118306
     21 H3          -3.8520   -50.3270     5.6000 ha         1 L47       0.133645
     22 H4          -2.3150   -48.3850     5.6920 ha         1 L47       0.165406
     23 H5          -0.2250   -46.8990     5.3790 hc         1 L47       0.020661
     24 H6           1.4540   -46.7470     5.7900 hc         1 L47       0.020661
     25 H7           0.9730   -46.5650     8.1600 hc         1 L47      -0.014359
     26 H8          -0.6490   -47.1570     7.9610 hc         1 L47      -0.014359
     27 H9           0.3680   -44.4930     6.8840 h1         1 L47       0.112125
     28 H10         -0.6000   -44.6500     8.3160 h1         1 L47       0.112125
     29 H19         -3.7000   -44.6600     5.1440 ha         1 L47       0.183236
     30 H22         -6.0370   -44.9750     5.9120 ha         1 L47       0.189693
     31 C16         -3.0730   -45.7270     8.3230 ca         1 L47      -0.422167
     32 C15         -4.4030   -45.9170     8.7510 ca         1 L47      -0.161994
     33 C14         -5.5000   -45.6400     7.8900 ca         1 L47       0.637367
     34 NP1         -6.7810   -45.8060     8.2930 nb         1 L47      -0.725969
     35 CP1         -7.0200   -46.2340     9.5520 ca         1 L47       0.428266
     36 CP2         -5.9970   -46.5460    10.4670 ca         1 L47      -0.497362
     37 CP3         -4.6620   -46.3940    10.0500 ca         1 L47       0.095586
     38 N1           1.2730   -50.7550     6.5920 na         1 L47      -0.554806
     39 HP1         -8.0580   -46.3380     9.8380 h4         1 L47       0.034764
     40 HP2         -6.2280   -46.8990    11.4630 ha         1 L47       0.184271
     41 HP3         -3.8510   -46.6330    10.7170 ha         1 L47       0.116746
     42 H11         -2.2730   -45.9440     9.0130 ha         1 L47       0.201014
     43 H            1.9410   -51.4820     6.8010 hn         1 L47       0.382817
@<TRIPOS>BOND
     1     1     2 1   
     2     2     3 1   
     3     2     4 1   
     4     4    11 2   
     5     4    38 1   
     6     5     6 ar  
     7     5    10 ar  
     8     5    38 1   
     9     6     7 ar  
    10     6    19 1   
    11     7     8 ar  
    12     7    20 1   
    13     8     9 ar  
    14     8    21 1   
    15     9    10 ar  
    16     9    22 1   
    17    10    11 1   
    18    11    12 1   
    19    12    13 1   
    20    12    23 1   
    21    12    24 1   
    22    13    14 1   
    23    13    25 1   
    24    13    26 1   
    25    14    15 1   
    26    14    27 1   
    27    14    28 1   
    28    15    16 1   
    29    16    18 ar  
    30    16    31 ar  
    31    17    18 ar  
    32    17    30 1   
    33    17    33 ar  
    34    18    29 1   
    35    31    32 ar  
    36    31    42 1   
    37    32    33 ar  
    38    32    37 ar  
    39    33    34 ar  
    40    34    35 ar  
    41    35    36 ar  
    42    35    39 1   
    43    36    37 ar  
    44    36    40 1   
    45    37    41 1   
    46    38    43 1   
@<TRIPOS>SUBSTRUCTURE
     1 L47         1 TEMP              0 ****  ****    0 ROOT
