@<TRIPOS>MOLECULE
L29
   41    43     1     0     0
SMALL
resp


@<TRIPOS>ATOM
      1 O1           3.4230   -47.4990     6.3030 o          1 L29      -0.798791
      2 C1           3.0280   -48.6150     6.7310 c          1 L29       0.881623
      3 O2           3.7780   -49.3670     7.3880 o          1 L29      -0.798791
      4 C2           1.6460   -49.0710     6.4350 cc         1 L29       0.055514
      5 C3          -0.0120   -50.6360     6.4320 ca         1 L29       0.370873
      6 C4          -0.8350   -51.7760     6.5610 ca         1 L29      -0.370536
      7 C5          -2.1550   -51.7460     6.0660 ca         1 L29      -0.128668
      8 C6          -2.6490   -50.5720     5.4630 ca         1 L29      -0.249638
      9 C7          -1.8300   -49.4300     5.3530 ca         1 L29      -0.191005
     10 C8          -0.4990   -49.4370     5.8250 ca         1 L29       0.017827
     11 C9           0.5620   -48.4620     5.8350 cd         1 L29      -0.191271
     12 C10          0.4740   -47.0550     5.3070 c3         1 L29       0.074553
     13 C11          0.2590   -45.9880     6.3950 c3         1 L29       0.089583
     14 C12         -0.9490   -46.2560     7.3130 c3         1 L29      -0.141898
     15 O3          -2.1030   -46.5040     6.5060 os         1 L29      -0.354892
     16 C13         -3.2260   -45.7690     6.7830 ca         1 L29       0.448665
     17 C16         -3.9080   -45.8170     8.0300 ca         1 L29      -0.257769
     18 C15         -5.0390   -45.0030     8.2360 ca         1 L29      -0.057977
     19 C14         -5.5260   -44.1800     7.2020 ca         1 L29      -0.265336
     20 C17         -4.8800   -44.1670     5.9540 ca         1 L29      -0.088939
     21 C18         -3.7380   -44.9720     5.7490 ca         1 L29      -0.289066
     22 H1          -0.4480   -52.6680     7.0280 ha         1 L29       0.171006
     23 H2          -2.7850   -52.6210     6.1500 ha         1 L29       0.121061
     24 H3          -3.6650   -50.5450     5.0940 ha         1 L29       0.134857
     25 H4          -2.2260   -48.5310     4.8980 ha         1 L29       0.175257
     26 H5          -0.3450   -46.9800     4.5800 hc         1 L29       0.001628
     27 H6           1.3760   -46.8130     4.7400 hc         1 L29       0.001628
     28 H7           0.1490   -45.0090     5.9260 hc         1 L29       0.009977
     29 H8           1.1530   -45.9270     7.0190 hc         1 L29       0.009977
     30 H9          -1.0830   -45.4050     7.9820 h1         1 L29       0.114909
     31 H10         -0.7340   -47.1270     7.9400 h1         1 L29       0.114909
     32 H19         -3.2610   -44.9720     4.7820 ha         1 L29       0.161437
     33 H22         -5.2560   -43.5480     5.1480 ha         1 L29       0.145614
     34 H13         -6.4020   -43.5720     7.3500 ha         1 L29       0.149714
     35 H12         -5.5570   -45.0130     9.1810 ha         1 L29       0.138136
     36 N1           1.2850   -50.3610     6.7960 na         1 L29      -0.593288
     37 H            1.9550   -50.9990     7.2440 hn         1 L29       0.394064
     38 FB1         -2.4350   -46.1860     9.7810 f          1 L29      -0.234646
     39 CB1         -3.4510   -46.7480     9.1430 c3         1 L29       0.698992
     40 FB2         -4.4110   -46.9760    10.0450 f          1 L29      -0.234646
     41 FB3         -3.0630   -47.9300     8.6620 f          1 L29      -0.234646
@<TRIPOS>BOND
     1     1     2 1   
     2     2     3 1   
     3     2     4 1   
     4     4    11 2   
     5     4    36 1   
     6     5     6 ar  
     7     5    10 ar  
     8     5    36 1   
     9     6     7 ar  
    10     6    22 1   
    11     7     8 ar  
    12     7    23 1   
    13     8     9 ar  
    14     8    24 1   
    15     9    10 ar  
    16     9    25 1   
    17    10    11 1   
    18    11    12 1   
    19    12    13 1   
    20    12    26 1   
    21    12    27 1   
    22    13    14 1   
    23    13    28 1   
    24    13    29 1   
    25    14    15 1   
    26    14    30 1   
    27    14    31 1   
    28    15    16 1   
    29    16    17 ar  
    30    16    21 ar  
    31    17    18 ar  
    32    17    39 1   
    33    18    19 ar  
    34    18    35 1   
    35    19    20 ar  
    36    19    34 1   
    37    20    21 ar  
    38    20    33 1   
    39    21    32 1   
    40    36    37 1   
    41    38    39 1   
    42    39    40 1   
    43    39    41 1   
@<TRIPOS>SUBSTRUCTURE
     1 L29         1 TEMP              0 ****  ****    0 ROOT
