@<TRIPOS>MOLECULE
L70
   42    43     1     0     0
SMALL
resp


@<TRIPOS>ATOM
      1 CD1         37.0570     6.0200    15.5720 c3         1 L70      -0.510048
      2 CD2         36.6610     6.9920    16.6940 c3         1 L70       0.573534
      3 CD3         36.7260     6.3210    18.0730 c3         1 L70      -0.510048
      4 ND1         37.5300     8.1660    16.6840 n          1 L70      -0.944962
      5 CB          38.8610     8.1470    16.8450 c          1 L70       1.120417
      6 OB          39.5080     7.1120    17.0110 o          1 L70      -0.664848
      7 N1          39.3780     9.3860    16.7840 n          1 L70      -0.790980
      8 C12         40.7400     9.7890    16.8450 ca         1 L70       0.309712
      9 C11         41.7790     8.9720    17.3120 ca         1 L70      -0.248858
     10 C10         43.0860     9.4570    17.3660 ca         1 L70      -0.210659
     11 C9          43.3650    10.7570    16.9470 ca         1 L70      -0.094393
     12 C8          42.3440    11.5880    16.4780 ca         1 L70       0.053985
     13 C5          42.6250    12.9340    16.0150 cc         1 L70       0.034861
     14 S1          43.6360    14.0250    16.9150 ss         1 L70      -0.147627
     15 C4          43.3650    15.3250    15.7670 cc         1 L70      -0.084493
     16 C7          44.0430    16.6120    16.0510 c          1 L70       0.796083
     17 O5          44.7710    16.6960    17.0650 o          1 L70      -0.754072
     18 O4          43.8790    17.5780    15.2720 o          1 L70      -0.754072
     19 C3          42.5150    14.9210    14.7390 cd         1 L70       0.262144
     20 O3          42.0390    15.7420    13.7740 os         1 L70      -0.306704
     21 C2          40.7910    16.3660    14.0670 c3         1 L70      -0.024493
     22 C1          40.3520    17.2930    12.9310 c          1 L70       0.908547
     23 O2          41.1070    17.3770    11.9370 o          1 L70      -0.850486
     24 O1          39.2650    17.8950    13.0720 o          1 L70      -0.850486
     25 C6          42.1860    13.5750    14.8670 cd         1 L70      -0.179525
     26 BR1         41.1520    12.7040    13.5220 br         1 L70      -0.068398
     27 C13         41.0350    11.0940    16.4480 ca         1 L70      -0.246036
     28 HD1         36.9740     6.4920    14.5920 hc         1 L70       0.126031
     29 HD2         38.0850     5.6750    15.6880 hc         1 L70       0.126031
     30 HD3         36.4100     5.1430    15.5680 hc         1 L70       0.126031
     31 HD4         35.6300     7.3110    16.5300 h1         1 L70      -0.015277
     32 HD5         36.4220     7.0100    18.8610 hc         1 L70       0.126031
     33 HD6         36.0630     5.4570    18.1190 hc         1 L70       0.126031
     34 HD7         37.7360     5.9760    18.3010 hc         1 L70       0.126031
     35 HD8         37.0790     9.0570    16.5420 hn         1 L70       0.394480
     36 HN2         38.7200    10.1330    16.6170 hn         1 L70       0.354516
     37 H5          41.5990     7.9640    17.6500 ha         1 L70       0.169427
     38 H4          43.8790     8.8260    17.7390 ha         1 L70       0.145815
     39 H3          44.3810    11.1220    16.9990 ha         1 L70       0.114906
     40 H1          40.0400    15.5850    14.1970 h1         1 L70       0.043006
     41 H2          40.8240    16.9210    15.0060 h1         1 L70       0.043006
     42 H6          40.2380    11.7350    16.0990 ha         1 L70       0.175838
@<TRIPOS>BOND
     1     1     2 1   
     2     1    28 1   
     3     1    29 1   
     4     1    30 1   
     5     2     3 1   
     6     2     4 1   
     7     2    31 1   
     8     3    32 1   
     9     3    33 1   
    10     3    34 1   
    11     4     5 1   
    12     4    35 1   
    13     5     6 2   
    14     5     7 1   
    15     7     8 1   
    16     7    36 1   
    17     8     9 ar  
    18     8    27 ar  
    19     9    10 ar  
    20     9    37 1   
    21    10    11 ar  
    22    10    38 1   
    23    11    12 ar  
    24    11    39 1   
    25    12    13 1   
    26    12    27 ar  
    27    13    14 1   
    28    13    25 2   
    29    14    15 1   
    30    15    16 1   
    31    15    19 2   
    32    16    17 1   
    33    16    18 1   
    34    19    20 1   
    35    19    25 1   
    36    20    21 1   
    37    21    22 1   
    38    21    40 1   
    39    21    41 1   
    40    22    23 1   
    41    22    24 1   
    42    25    26 1   
    43    27    42 1   
@<TRIPOS>SUBSTRUCTURE
     1 L70         1 TEMP              0 ****  ****    0 ROOT
