@<TRIPOS>MOLECULE
L28
   41    43     1     0     0
SMALL
resp


@<TRIPOS>ATOM
      1 O1           3.9030   -50.1310     6.9250 o          1 L28      -0.797331
      2 C1           3.1380   -49.1610     6.7260 c          1 L28       0.882619
      3 O2           3.5630   -47.9810     6.7260 o          1 L28      -0.797331
      4 C2           1.6990   -49.4260     6.5060 cc         1 L28       0.044228
      5 C3          -0.0740   -50.8650     6.3720 ca         1 L28       0.334293
      6 C4          -0.9480   -51.9680     6.3520 ca         1 L28      -0.369093
      7 C5          -2.3230   -51.7620     6.1430 ca         1 L28      -0.115865
      8 C6          -2.8140   -50.4560     5.9480 ca         1 L28      -0.261742
      9 C7          -1.9310   -49.3560     5.9670 ca         1 L28      -0.208527
     10 C8          -0.5420   -49.5320     6.1790 ca         1 L28       0.076707
     11 C9           0.5890   -48.6420     6.2610 cd         1 L28      -0.283859
     12 C10          0.5190   -47.1480     6.1440 c3         1 L28       0.060298
     13 C11          0.1330   -46.5090     7.4890 c3         1 L28       0.137221
     14 C12         -0.4950   -45.1180     7.3420 c3         1 L28      -0.079246
     15 O3          -1.7520   -45.1830     6.6680 os         1 L28      -0.422850
     16 C13         -2.9010   -45.4450     7.3860 ca         1 L28       0.388737
     17 C18         -4.1350   -45.3240     6.7050 ca         1 L28       0.067327
     18 C17         -5.3520   -45.5710     7.3720 ca         1 L28      -0.230420
     19 C14         -5.3530   -45.9450     8.7280 ca         1 L28      -0.221534
     20 C15         -4.1340   -46.0720     9.4200 ca         1 L28      -0.155667
     21 C16         -2.9150   -45.8260     8.7540 ca         1 L28      -0.293895
     22 H1          -0.5640   -52.9670     6.5010 ha         1 L28       0.172162
     23 H2          -3.0050   -52.6000     6.1330 ha         1 L28       0.117526
     24 H3          -3.8700   -50.2980     5.7800 ha         1 L28       0.134039
     25 H4          -2.3260   -48.3600     5.8190 ha         1 L28       0.162746
     26 H5          -0.2130   -46.8790     5.3810 hc         1 L28       0.036675
     27 H6           1.4650   -46.7370     5.7900 hc         1 L28       0.036675
     28 H7           1.0180   -46.4640     8.1280 hc         1 L28      -0.016911
     29 H8          -0.5760   -47.1560     8.0050 hc         1 L28      -0.016911
     30 H9           0.1700   -44.4860     6.7480 h1         1 L28       0.107414
     31 H10         -0.5830   -44.6190     8.3070 h1         1 L28       0.107414
     32 H11         -2.0030   -45.9350     9.3220 ha         1 L28       0.171236
     33 H12         -4.1390   -46.3570    10.4610 ha         1 L28       0.148337
     34 H13         -6.2870   -46.1360     9.2360 ha         1 L28       0.144373
     35 H22         -6.2910   -45.4740     6.8470 ha         1 L28       0.157617
     36 N1           1.2870   -50.7510     6.5620 na         1 L28      -0.547160
     37 H            1.9620   -51.4850     6.7360 hn         1 L28       0.381164
     38 CA1         -4.1630   -44.9220     5.2460 c3         1 L28      -0.387333
     39 HA1         -5.1790   -44.9290     4.8510 hc         1 L28       0.112289
     40 HA2         -3.7530   -43.9150     5.1250 hc         1 L28       0.112289
     41 HA3         -3.5600   -45.6140     4.6560 hc         1 L28       0.112289
@<TRIPOS>BOND
     1     1     2 1   
     2     2     3 1   
     3     2     4 1   
     4     4    11 2   
     5     4    36 1   
     6     5     6 ar  
     7     5    10 ar  
     8     5    36 1   
     9     6     7 ar  
    10     6    22 1   
    11     7     8 ar  
    12     7    23 1   
    13     8     9 ar  
    14     8    24 1   
    15     9    10 ar  
    16     9    25 1   
    17    10    11 1   
    18    11    12 1   
    19    12    13 1   
    20    12    26 1   
    21    12    27 1   
    22    13    14 1   
    23    13    28 1   
    24    13    29 1   
    25    14    15 1   
    26    14    30 1   
    27    14    31 1   
    28    15    16 1   
    29    16    17 ar  
    30    16    21 ar  
    31    17    18 ar  
    32    17    38 1   
    33    18    19 ar  
    34    18    35 1   
    35    19    20 ar  
    36    19    34 1   
    37    20    21 ar  
    38    20    33 1   
    39    21    32 1   
    40    36    37 1   
    41    38    39 1   
    42    38    40 1   
    43    38    41 1   
@<TRIPOS>SUBSTRUCTURE
     1 L28         1 TEMP              0 ****  ****    0 ROOT
