@<TRIPOS>MOLECULE
Lbr
   42    44     1     0     0
SMALL
resp


@<TRIPOS>ATOM
      1  O1         39.2350    17.6630    12.7850 o          1 Lbr      -0.863703
      2  C1         40.3520    17.1020    12.7360 c          1 Lbr       0.923098
      3  O2         41.1780    17.2190    11.8040 o          1 Lbr      -0.863703
      4  C2         40.7690    16.2190    13.9140 c3         1 Lbr       0.000065
      5  O3         42.0930    15.7290    13.7430 os         1 Lbr      -0.349598
      6  C3         42.5150    14.9210    14.7390 cc         1 Lbr       0.305458
      7  C6         42.1860    13.5750    14.8670 cc         1 Lbr      -0.352366
      8  BR1        41.2070    12.6500    13.5170 br         1 Lbr       0.085107
      9  C5         42.6250    12.9340    16.0150 cd         1 Lbr       0.144714
     10  C8         42.3440    11.5880    16.4780 ca         1 Lbr      -0.051533
     11  C9         43.3650    10.7570    16.9470 ca         1 Lbr      -0.067608
     12  C10        43.0860     9.4570    17.3660 ca         1 Lbr      -0.243257
     13  C11        41.7790     8.9720    17.3120 ca         1 Lbr      -0.218436
     14  C12        40.7400     9.7890    16.8450 ca         1 Lbr       0.330228
     15  N1         39.3980     9.3770    16.7740 nh         1 Lbr      -0.850480
     16  CA         38.9980     7.9740    16.7120 c3         1 Lbr       0.337531
     17  CG2        39.0450     7.4080    15.2990 ca         1 Lbr       0.097934
     18  CG3        40.2640     7.0600    14.7070 ca         1 Lbr      -0.213074
     19  CG4        40.2940     6.5240    13.4200 ca         1 Lbr      -0.125886
     20  CG5        39.1060     6.3130    12.7240 ca         1 Lbr      -0.134879
     21  CG6        37.8880     6.6560    13.3070 ca         1 Lbr      -0.125886
     22  CG7        37.8550     7.2050    14.5890 ca         1 Lbr      -0.213074
     23  C13        41.0350    11.0940    16.4480 ca         1 Lbr      -0.142857
     24  S1         43.6360    14.0250    16.9150 ss         1 Lbr      -0.174719
     25  C4         43.3650    15.3250    15.7670 cd         1 Lbr      -0.042612
     26  C7         44.0490    16.6110    16.0380 c          1 Lbr       0.768017
     27  O4         43.8750    17.5610    15.2450 o          1 Lbr      -0.748114
     28  O5         44.7780    16.7150    17.0500 o          1 Lbr      -0.748114
     29  H2         40.7110    16.7970    14.8380 h1         1 Lbr       0.038208
     30  H1         40.0550    15.3980    13.9950 h1         1 Lbr       0.038208
     31  H3         44.3840    11.1150    16.9830 ha         1 Lbr       0.112911
     32  H4         43.8830     8.8260    17.7310 ha         1 Lbr       0.145962
     33  H5         41.5910     7.9600    17.6370 ha         1 Lbr       0.144640
     34  HN2        38.6570    10.0630    16.8100 hn         1 Lbr       0.379057
     35  HA3        39.6610     7.3810    17.3430 h1         1 Lbr      -0.008128
     36  HA1        37.9900     7.8710    17.1160 h1         1 Lbr      -0.008128
     37  HG8        41.1890     7.2050    15.2460 ha         1 Lbr       0.091661
     38  HG9        41.2390     6.2700    12.9620 ha         1 Lbr       0.126811
     39  HG0        39.1290     5.8840    11.7330 ha         1 Lbr       0.126632
     40  HG1        36.9660     6.4970    12.7660 ha         1 Lbr       0.126811
     41  HG2        36.9060     7.4740    15.0300 ha         1 Lbr       0.091661
     42  H6         40.2330    11.7380    16.1150 ha         1 Lbr       0.131439
@<TRIPOS>BOND
     1     1     2 1   
     2     2     3 1   
     3     2     4 1   
     4     4     5 1   
     5     4    29 1   
     6     4    30 1   
     7     5     6 1   
     8     6     7 1   
     9     6    25 2   
    10     7     8 1   
    11     7     9 2   
    12     9    10 1   
    13     9    24 1   
    14    10    11 ar  
    15    10    23 ar  
    16    11    12 ar  
    17    11    31 1   
    18    12    13 ar  
    19    12    32 1   
    20    13    14 ar  
    21    13    33 1   
    22    14    15 1   
    23    14    23 ar  
    24    15    16 1   
    25    15    34 1   
    26    16    17 1   
    27    16    35 1   
    28    16    36 1   
    29    17    18 ar  
    30    17    22 ar  
    31    18    19 ar  
    32    18    37 1   
    33    19    20 ar  
    34    19    38 1   
    35    20    21 ar  
    36    20    39 1   
    37    21    22 ar  
    38    21    40 1   
    39    22    41 1   
    40    23    42 1   
    41    24    25 1   
    42    25    26 1   
    43    26    27 1   
    44    26    28 1   
@<TRIPOS>SUBSTRUCTURE
     1 Lbr         1 TEMP              0 ****  ****    0 ROOT
