@<TRIPOS>MOLECULE
L39
   48    51     1     0     0
SMALL
resp


@<TRIPOS>ATOM
      1 O1           3.8280   -50.6230     7.4840 o          1 L39      -0.795820
      2 C1           3.3210   -49.6150     6.9240 c          1 L39       0.870231
      3 O2           3.9050   -48.5250     6.8180 o          1 L39      -0.795820
      4 C2           1.9390   -49.7710     6.3970 cc         1 L39       0.023541
      5 C3          -0.0210   -50.9270     6.3140 ca         1 L39       0.331081
      6 C4          -1.0750   -51.8410     6.4950 ca         1 L39      -0.349231
      7 C5          -2.3590   -51.5140     6.0250 ca         1 L39      -0.120559
      8 C6          -2.5690   -50.3050     5.3500 ca         1 L39      -0.250753
      9 C7          -1.5020   -49.4040     5.1500 ca         1 L39      -0.179613
     10 C8          -0.2160   -49.6830     5.6370 ca         1 L39       0.020620
     11 C9           1.0640   -48.9790     5.6740 cd         1 L39      -0.114956
     12 C10          1.3230   -47.6240     5.1360 c3         1 L39      -0.253764
     13 C11          0.4440   -46.5590     5.8290 c3         1 L39       0.088365
     14 C12          0.1820   -46.7270     7.3590 c3         1 L39       0.348131
     15 O3          -0.4800   -45.6320     7.9900 os         1 L39      -0.557065
     16 C13         -1.8080   -45.4560     7.6770 ca         1 L39       0.489296
     17 C16         -2.8300   -45.7080     8.6260 ca         1 L39      -0.328708
     18 C15         -4.1840   -45.4280     8.3010 ca         1 L39      -0.110744
     19 C14         -4.5490   -44.9450     7.0120 cp         1 L39      -0.078558
     20 C17         -3.5000   -44.7380     6.0860 ca         1 L39      -0.110744
     21 C18         -2.1610   -44.9740     6.4200 ca         1 L39      -0.328708
     22 H1          -0.8700   -52.7530     7.0350 ha         1 L39       0.166649
     23 H2          -3.1580   -52.2070     6.1970 ha         1 L39       0.119408
     24 H3          -3.5590   -50.0500     5.0070 ha         1 L39       0.131391
     25 H4          -1.6960   -48.4570     4.6510 ha         1 L39       0.144892
     26 H5           1.1280   -47.6470     4.0540 hc         1 L39       0.088183
     27 H6           2.3870   -47.3970     5.2050 hc         1 L39       0.088183
     28 H7          -0.5470   -46.5760     5.3450 hc         1 L39      -0.024225
     29 H8           0.8590   -45.5950     5.5860 hc         1 L39      -0.024225
     30 H9           1.1170   -46.8600     7.9080 h1         1 L39       0.038106
     31 H10         -0.4140   -47.6220     7.5770 h1         1 L39       0.038106
     32 H11         -2.5710   -46.1050     9.6010 ha         1 L39       0.168463
     33 H19         -1.3610   -44.7850     5.7080 ha         1 L39       0.168463
     34 H22         -3.7250   -44.3930     5.0870 ha         1 L39       0.133405
     35 H12         -4.9360   -45.6030     9.0600 ha         1 L39       0.133405
     36 N1           1.2910   -50.9430     6.7120 na         1 L39      -0.555292
     37 CI1         -8.6260   -44.3360     5.6580 ca         1 L39      -0.154056
     38 CI2         -7.5720   -43.6310     5.0630 ca         1 L39      -0.145964
     39 CI3         -6.2570   -43.7910     5.5450 ca         1 L39      -0.187730
     40 CI4         -5.9620   -44.6930     6.6070 cp         1 L39       0.156071
     41 CI5         -7.0520   -45.3700     7.2070 ca         1 L39      -0.187730
     42 CI6         -8.3680   -45.1910     6.7360 ca         1 L39      -0.145964
     43 H            1.7990   -51.6650     7.2260 hn         1 L39       0.391285
     44 HI1         -9.6280   -44.2280     5.2750 ha         1 L39       0.126166
     45 HI2         -7.7570   -42.9770     4.2290 ha         1 L39       0.131974
     46 HI3         -5.4770   -43.2220     5.0610 ha         1 L39       0.136420
     47 HI4         -6.8790   -46.0650     8.0200 ha         1 L39       0.136420
     48 HI5         -9.1760   -45.7350     7.1980 ha         1 L39       0.131974
@<TRIPOS>BOND
     1     1     2 1   
     2     2     3 1   
     3     2     4 1   
     4     4    11 2   
     5     4    36 1   
     6     5     6 ar  
     7     5    10 ar  
     8     5    36 1   
     9     6     7 ar  
    10     6    22 1   
    11     7     8 ar  
    12     7    23 1   
    13     8     9 ar  
    14     8    24 1   
    15     9    10 ar  
    16     9    25 1   
    17    10    11 1   
    18    11    12 1   
    19    12    13 1   
    20    12    26 1   
    21    12    27 1   
    22    13    14 1   
    23    13    28 1   
    24    13    29 1   
    25    14    15 1   
    26    14    30 1   
    27    14    31 1   
    28    15    16 1   
    29    16    17 ar  
    30    16    21 ar  
    31    17    18 ar  
    32    17    32 1   
    33    18    19 ar  
    34    18    35 1   
    35    19    20 ar  
    36    19    40 1   
    37    20    21 ar  
    38    20    34 1   
    39    21    33 1   
    40    36    43 1   
    41    37    38 ar  
    42    37    42 ar  
    43    37    44 1   
    44    38    39 ar  
    45    38    45 1   
    46    39    40 ar  
    47    39    46 1   
    48    40    41 ar  
    49    41    42 ar  
    50    41    47 1   
    51    42    48 1   
@<TRIPOS>SUBSTRUCTURE
     1 L39         1 TEMP              0 ****  ****    0 ROOT
