@<TRIPOS>MOLECULE
L7C
   44    47     1     0     0
SMALL
resp


@<TRIPOS>ATOM
      1 C1          11.7850    -2.3450     1.0630 c3         1 L7C      -0.331411
      2 N1          13.1440    -2.6060     0.5700 n          1 L7C      -0.147853
      3 C2          14.2740    -2.5300     1.2880 cz         1 L7C       0.739582
      4 N2          14.3690    -2.2900     2.6000 nh         1 L7C      -0.947517
      5 N3          15.3480    -2.7490     0.5310 nh         1 L7C      -0.591821
      6 C3          15.0180    -3.0660    -0.8500 c3         1 L7C      -0.057492
      7 C4          15.5550    -1.9960    -1.8190 ca         1 L7C       0.163289
      8 C5          16.2100    -2.3560    -3.0210 ca         1 L7C      -0.217296
      9 C6          16.6300    -1.3670    -3.9230 ca         1 L7C      -0.104011
     10 C7          16.3790    -0.0110    -3.6500 ca         1 L7C      -0.162979
     11 C8          15.7540     0.3920    -2.4510 cp         1 L7C       0.073187
     12 C9          15.4600     1.8220    -2.1930 cp         1 L7C       0.068639
     13 C10         15.1110     2.6870    -3.2560 ca         1 L7C      -0.134134
     14 C11         14.7530     4.0290    -3.0230 ca         1 L7C      -0.153112
     15 C12         14.7530     4.5400    -1.7150 ca         1 L7C      -0.121458
     16 C13         15.1250     3.7080    -0.6440 ca         1 L7C      -0.012606
     17 CV1         15.1350     4.2480     0.7040 cg         1 L7C       0.367297
     18 NV1         15.1440     4.6820     1.7760 n1         1 L7C      -0.461681
     19 C14         15.4760     2.3610    -0.8840 ca         1 L7C      -0.161625
     20 C15         15.3690    -0.6170    -1.5370 ca         1 L7C      -0.242611
     21 CA1         15.5920    -4.4670    -1.1260 cx         1 L7C      -0.138809
     22 CA2         14.9500    -5.7530    -0.6410 cx         1 L7C      -0.240113
     23 CA3         15.0110    -5.4510    -2.1180 cx         1 L7C      -0.240113
     24 C16         13.4790    -2.9640    -0.7730 c          1 L7C       0.600689
     25 O1          12.6530    -3.1190    -1.6780 o          1 L7C      -0.435794
     26 H1          11.6560    -2.7470     2.0690 h1         1 L7C       0.168811
     27 H2          11.6120    -1.2700     1.0970 h1         1 L7C       0.168811
     28 H3          11.0290    -2.7930     0.4170 h1         1 L7C       0.168811
     29 H4          13.5880    -2.0400     3.2030 hn         1 L7C       0.475985
     30 H5          16.3110    -2.7410     0.8720 hn         1 L7C       0.440704
     31 H6          16.3940    -3.3860    -3.2910 ha         1 L7C       0.149727
     32 H7          17.1250    -1.6500    -4.8420 ha         1 L7C       0.166935
     33 H8          16.6710     0.7240    -4.3840 ha         1 L7C       0.160702
     34 H9          15.0740     2.3090    -4.2680 ha         1 L7C       0.149754
     35 H10         14.4550     4.6660    -3.8430 ha         1 L7C       0.167565
     36 H11         14.4630     5.5670    -1.5360 ha         1 L7C       0.176593
     37 H12         15.7580     1.7350    -0.0520 ha         1 L7C       0.144705
     38 H13         14.8680    -0.3210    -0.6280 ha         1 L7C       0.118212
     39 HA1         16.6770    -4.4710    -1.0660 hc         1 L7C       0.174397
     40 HA2         15.6120    -6.5320    -0.2670 hc         1 L7C       0.145514
     41 HA3         13.9720    -5.7130    -0.1650 hc         1 L7C       0.145514
     42 HA4         14.0740    -5.2080    -2.6030 hc         1 L7C       0.145514
     43 HA5         15.7100    -6.0220    -2.7270 hc         1 L7C       0.145514
     44 H14         15.2900    -2.2840     3.0380 hn         1 L7C       0.475985
@<TRIPOS>BOND
     1     1     2 1   
     2     1    26 1   
     3     1    27 1   
     4     1    28 1   
     5     2     3 2   
     6     2    24 1   
     7     3     4 1   
     8     3     5 1   
     9     4    29 1   
    10     4    44 1   
    11     5     6 1   
    12     5    30 1   
    13     6     7 1   
    14     6    21 1   
    15     6    24 1   
    16     7     8 ar  
    17     7    20 ar  
    18     8     9 ar  
    19     8    31 1   
    20     9    10 ar  
    21     9    32 1   
    22    10    11 ar  
    23    10    33 1   
    24    11    12 1   
    25    11    20 ar  
    26    12    13 ar  
    27    12    19 ar  
    28    13    14 ar  
    29    13    34 1   
    30    14    15 ar  
    31    14    35 1   
    32    15    16 ar  
    33    15    36 1   
    34    16    17 1   
    35    16    19 ar  
    36    17    18 3   
    37    19    37 1   
    38    20    38 1   
    39    21    22 1   
    40    21    23 1   
    41    21    39 1   
    42    22    23 1   
    43    22    40 1   
    44    22    41 1   
    45    23    42 1   
    46    23    43 1   
    47    24    25 2   
@<TRIPOS>SUBSTRUCTURE
     1 L7C         1 TEMP              0 ****  ****    0 ROOT
