@<TRIPOS>MOLECULE
Lbs
   45    47     1     0     0
SMALL
resp


@<TRIPOS>ATOM
      1  O2         41.1640    17.7420    12.1780 o          1 Lbs      -0.856084
      2  C1         40.3720    17.6060    13.1370 c          1 Lbs       0.915473
      3  O1         39.3250    18.2680    13.3150 o          1 Lbs      -0.856084
      4  C2         40.7170    16.5470    14.1860 c3         1 Lbs      -0.012936
      5  O3         41.9130    15.8490    13.8450 os         1 Lbs      -0.310379
      6  C3         42.3250    14.9330    14.7530 cc         1 Lbs       0.223711
      7  C6         41.8780    13.6140    14.7800 cc         1 Lbs      -0.139190
      8  BR1        40.6640    12.9350    13.4740 br         1 Lbs      -0.046405
      9  C5         42.3470    12.8250    15.8290 cd         1 Lbs       0.013566
     10  C8         42.0580    11.4350    16.1600 ca         1 Lbs       0.018687
     11  C9         43.0420    10.5800    16.6710 ca         1 Lbs      -0.088719
     12  C10        42.7510     9.2420    16.9420 ca         1 Lbs      -0.208170
     13  C11        41.4810     8.7320    16.6730 ca         1 Lbs      -0.309221
     14  C12        40.4830     9.5700    16.1590 ca         1 Lbs       0.380256
     15  N1         39.1830     9.1390    15.8450 nh         1 Lbs      -0.901384
     16  CK1        38.9110     7.7620    15.4290 c3         1 Lbs       0.411502
     17  CK5        39.6100     7.4190    14.0880 c3         1 Lbs      -0.057359
     18  CK4        39.2400     6.0200    13.5610 c3         1 Lbs      -0.010037
     19  CX7        37.7150     5.8360    13.4580 c3         1 Lbs       0.018747
     20  CK3        37.0170     6.1410    14.7980 c3         1 Lbs      -0.010037
     21  CK2        37.3830     7.5400    15.3340 c3         1 Lbs      -0.057359
     22  C13        40.7760    10.9160    15.9500 ca         1 Lbs      -0.152901
     23  S1         43.4370    13.7820    16.8010 ss         1 Lbs      -0.155721
     24  C4         43.2080    15.1990    15.7940 cd         1 Lbs      -0.057498
     25  C7         43.9470    16.4230    16.1840 c          1 Lbs       0.784588
     26  O5         44.6950    16.3790    17.1850 o          1 Lbs      -0.751575
     27  O4         43.8110    17.4650    15.5040 o          1 Lbs      -0.751575
     28  H1         39.9030    15.8240    14.2410 h1         1 Lbs       0.038417
     29  H2         40.7840    17.0110    15.1720 h1         1 Lbs       0.038417
     30  H3         44.0370    10.9520    16.8660 ha         1 Lbs       0.116290
     31  H4         43.5100     8.5990    17.3640 ha         1 Lbs       0.142334
     32  H5         41.2780     7.6880    16.8640 ha         1 Lbs       0.173448
     33  HN2        38.4190     9.7960    15.9010 hn         1 Lbs       0.359232
     34 HK11        39.3330     7.1200    16.2020 h1         1 Lbs      -0.015947
     35 HK52        39.3540     8.1640    13.3350 hc         1 Lbs       0.011954
     36 HK51        40.6910     7.4720    14.2150 hc         1 Lbs       0.011954
     37 HK42        39.6900     5.8680    12.5800 hc         1 Lbs      -0.009297
     38 HK41        39.6600     5.2540    14.2120 hc         1 Lbs      -0.009297
     39  HX2        37.3190     6.4930    12.6840 hc         1 Lbs      -0.008506
     40  HX1        37.4830     4.8190    13.1440 hc         1 Lbs      -0.008506
     41 HK32        35.9370     6.0760    14.6710 hc         1 Lbs      -0.009297
     42 HK31        37.2840     5.3860    15.5370 hc         1 Lbs      -0.009297
     43 HK21        36.9250     7.6800    16.3130 hc         1 Lbs       0.011954
     44 HK22        36.9430     8.2940    14.6810 hc         1 Lbs       0.011954
     45  H6         40.0050    11.5890    15.6070 ha         1 Lbs       0.120299
@<TRIPOS>BOND
     1     1     2 1   
     2     2     3 1   
     3     2     4 1   
     4     4     5 1   
     5     4    28 1   
     6     4    29 1   
     7     5     6 1   
     8     6     7 1   
     9     6    24 2   
    10     7     8 1   
    11     7     9 2   
    12     9    10 1   
    13     9    23 1   
    14    10    11 ar  
    15    10    22 ar  
    16    11    12 ar  
    17    11    30 1   
    18    12    13 ar  
    19    12    31 1   
    20    13    14 ar  
    21    13    32 1   
    22    14    15 1   
    23    14    22 ar  
    24    15    16 1   
    25    15    33 1   
    26    16    17 1   
    27    16    21 1   
    28    16    34 1   
    29    17    18 1   
    30    17    35 1   
    31    17    36 1   
    32    18    19 1   
    33    18    37 1   
    34    18    38 1   
    35    19    20 1   
    36    19    39 1   
    37    19    40 1   
    38    20    21 1   
    39    20    41 1   
    40    20    42 1   
    41    21    43 1   
    42    21    44 1   
    43    22    45 1   
    44    23    24 1   
    45    24    25 1   
    46    25    26 1   
    47    25    27 1   
@<TRIPOS>SUBSTRUCTURE
     1 Lbs         1 TEMP              0 ****  ****    0 ROOT
