@<TRIPOS>MOLECULE
L65
   43    45     1     0     0
SMALL
resp


@<TRIPOS>ATOM
      1 O1           3.9460   -49.6120     7.0490 o          1 L65      -0.733714
      2 C1           3.1660   -48.7770     6.5330 c          1 L65       0.781006
      3 O2           3.5660   -47.6380     6.1960 o          1 L65      -0.733714
      4 C2           1.7270   -49.1190     6.3290 cc         1 L65       0.057180
      5 S1           1.2730   -50.7340     6.7950 ss         1 L65      -0.116889
      6 C3          -0.4030   -50.4750     6.3320 ca         1 L65      -0.006119
      7 C4          -1.4790   -51.3860     6.4180 ca         1 L65       0.001558
      8 C5          -2.7670   -51.0050     6.0090 ca         1 L65      -0.100704
      9 C6          -2.9810   -49.7060     5.5110 ca         1 L65      -0.231029
     10 C7          -1.8980   -48.8060     5.4280 ca         1 L65      -0.227074
     11 C8          -0.5800   -49.1460     5.8290 ca         1 L65       0.229919
     12 C9           0.6610   -48.3670     5.8410 cd         1 L65      -0.287733
     13 C10          0.7550   -46.9300     5.3890 c3         1 L65       0.141872
     14 C11          0.8990   -45.9250     6.5500 c3         1 L65      -0.100264
     15 C12         -0.2810   -45.9300     7.5190 c3         1 L65      -0.007000
     16 O3          -1.3960   -45.3200     6.8690 os         1 L65      -0.378531
     17 C13         -2.6320   -45.4540     7.4520 ca         1 L65       0.539110
     18 C16         -2.8740   -46.1430     8.6640 ca         1 L65      -0.580655
     19 C15         -4.1930   -46.3030     9.1480 ca         1 L65       0.372471
     20 CC1         -4.4210   -47.0950    10.4170 c3         1 L65      -0.243186
     21 C14         -5.2830   -45.7390     8.4360 ca         1 L65      -0.279541
     22 CL1         -6.9050   -45.9430     9.0120 cl         1 L65      -0.129312
     23 C17         -5.0340   -45.0050     7.2490 ca         1 L65       0.372471
     24 CH1         -6.1760   -44.3660     6.4860 c3         1 L65      -0.243186
     25 C18         -3.7160   -44.8720     6.7650 ca         1 L65      -0.580655
     26 CL4         -1.2370   -52.9830     7.0300 cl         1 L65      -0.129131
     27 H2          -3.5910   -51.6990     6.0860 ha         1 L65       0.118363
     28 H3          -3.9670   -49.3970     5.1970 ha         1 L65       0.150701
     29 H4          -2.0860   -47.8160     5.0510 ha         1 L65       0.180360
     30 H5          -0.1300   -46.6600     4.8170 hc         1 L65      -0.002008
     31 H6           1.5880   -46.8010     4.6900 hc         1 L65      -0.002008
     32 H7           1.0380   -44.9170     6.1530 hc         1 L65       0.063281
     33 H8           1.7900   -46.1470     7.1280 hc         1 L65       0.063281
     34 H9          -0.0340   -45.3640     8.4140 h1         1 L65       0.087875
     35 H10         -0.4930   -46.9560     7.8180 h1         1 L65       0.087875
     36 H11         -2.0620   -46.5750     9.2320 ha         1 L65       0.212045
     37 HC1         -5.1480   -46.6090    11.0730 hc         1 L65       0.073507
     38 HC2         -4.7960   -48.0880    10.1680 hc         1 L65       0.073507
     39 HC3         -3.4950   -47.2170    10.9840 hc         1 L65       0.073507
     40 HH1         -5.8060   -43.7550     5.6570 hc         1 L65       0.073507
     41 HH2         -6.8420   -45.1280     6.0710 hc         1 L65       0.073507
     42 HH3         -6.7590   -43.7150     7.1420 hc         1 L65       0.073507
     43 H19         -3.5300   -44.3250     5.8480 ha         1 L65       0.212045
@<TRIPOS>BOND
     1     1     2 1   
     2     2     3 1   
     3     2     4 1   
     4     4     5 1   
     5     4    12 2   
     6     5     6 1   
     7     6     7 ar  
     8     6    11 ar  
     9     7     8 ar  
    10     7    26 1   
    11     8     9 ar  
    12     8    27 1   
    13     9    10 ar  
    14     9    28 1   
    15    10    11 ar  
    16    10    29 1   
    17    11    12 1   
    18    12    13 1   
    19    13    14 1   
    20    13    30 1   
    21    13    31 1   
    22    14    15 1   
    23    14    32 1   
    24    14    33 1   
    25    15    16 1   
    26    15    34 1   
    27    15    35 1   
    28    16    17 1   
    29    17    18 ar  
    30    17    25 ar  
    31    18    19 ar  
    32    18    36 1   
    33    19    20 1   
    34    19    21 ar  
    35    20    37 1   
    36    20    38 1   
    37    20    39 1   
    38    21    22 1   
    39    21    23 ar  
    40    23    24 1   
    41    23    25 ar  
    42    24    40 1   
    43    24    41 1   
    44    24    42 1   
    45    25    43 1   
@<TRIPOS>SUBSTRUCTURE
     1 L65         1 TEMP              0 ****  ****    0 ROOT
