@<TRIPOS>MOLECULE
L3A
   39    41     1     0     0
SMALL
resp


@<TRIPOS>ATOM
      1 C1          11.8130    -2.0990     1.0830 c3         1 L3A      -0.335478
      2 N1          13.1330    -2.4690     0.5570 n          1 L3A      -0.127376
      3 C2          14.2850    -2.5310     1.2460 cz         1 L3A       0.699655
      4 N2          14.4330    -2.3250     2.5600 nh         1 L3A      -0.915865
      5 N3          15.3130    -2.8530     0.4550 nh         1 L3A      -0.648881
      6 C3          14.9090    -3.0360    -0.9380 c3         1 L3A       0.295874
      7 CB          15.1890    -4.4890    -1.3780 c3         1 L3A      -0.308831
      8 C4          15.5120    -1.9640    -1.8620 ca         1 L3A      -0.007267
      9 C5          16.1760    -2.3130    -3.0620 ca         1 L3A      -0.179726
     10 C6          16.6330    -1.3120    -3.9320 ca         1 L3A      -0.146023
     11 C7          16.4140     0.0420    -3.6290 ca         1 L3A      -0.114905
     12 C8          15.7990     0.4340    -2.4210 cp         1 L3A       0.043591
     13 C9          15.5500     1.8630    -2.1170 cp         1 L3A       0.016612
     14 C10         15.2540     2.7810    -3.1520 ca         1 L3A      -0.141016
     15 C11         14.9340     4.1240    -2.8690 ca         1 L3A      -0.199913
     16 C12         14.9160     4.5780    -1.5400 ca         1 L3A      -0.014580
     17 C13         15.2410     3.6930    -0.4990 ca         1 L3A      -0.059723
     18 CL1         15.2370     4.2620     1.1300 cl         1 L3A      -0.095046
     19 C14         15.5570     2.3500    -0.7890 ca         1 L3A      -0.040210
     20 C15         15.3760    -0.5880    -1.5400 ca         1 L3A      -0.165235
     21 C16         13.3950    -2.8050    -0.8050 c          1 L3A       0.492032
     22 O1          12.5340    -2.8850    -1.6870 o          1 L3A      -0.446237
     23 H1          11.6710    -1.0230     0.9800 h1         1 L3A       0.172768
     24 H2          11.0130    -2.6020     0.5390 h1         1 L3A       0.172768
     25 H3          11.7240    -2.3620     2.1370 h1         1 L3A       0.172768
     26 H4          15.3680    -2.3770     2.9680 hn         1 L3A       0.469017
     27 H5          16.2860    -2.8880     0.7610 hn         1 L3A       0.445155
     28 HB1         16.2600    -4.6770    -1.4690 hc         1 L3A       0.114700
     29 HB2         14.8010    -5.2070    -0.6550 hc         1 L3A       0.114700
     30 HB3         14.7220    -4.7160    -2.3380 hc         1 L3A       0.114700
     31 H6          16.3360    -3.3390    -3.3590 ha         1 L3A       0.164597
     32 H7          17.1290    -1.5870    -4.8530 ha         1 L3A       0.171738
     33 H8          16.7240     0.7860    -4.3450 ha         1 L3A       0.155065
     34 H9          15.2250     2.4440    -4.1780 ha         1 L3A       0.144473
     35 H10         14.6760     4.8040    -3.6680 ha         1 L3A       0.175096
     36 H11         14.6510     5.6010    -1.3160 ha         1 L3A       0.139366
     37 H12         15.8010     1.6880     0.0250 ha         1 L3A       0.110442
     38 H13         14.8780    -0.3030    -0.6260 ha         1 L3A       0.092177
     39 H14         13.6880    -2.0200     3.1840 hn         1 L3A       0.469017
@<TRIPOS>BOND
     1     1     2 1   
     2     1    23 1   
     3     1    24 1   
     4     1    25 1   
     5     2     3 2   
     6     2    21 1   
     7     3     4 1   
     8     3     5 1   
     9     4    26 1   
    10     4    39 1   
    11     5     6 1   
    12     5    27 1   
    13     6     7 1   
    14     6     8 1   
    15     6    21 1   
    16     7    28 1   
    17     7    29 1   
    18     7    30 1   
    19     8     9 ar  
    20     8    20 ar  
    21     9    10 ar  
    22     9    31 1   
    23    10    11 ar  
    24    10    32 1   
    25    11    12 ar  
    26    11    33 1   
    27    12    13 1   
    28    12    20 ar  
    29    13    14 ar  
    30    13    19 ar  
    31    14    15 ar  
    32    14    34 1   
    33    15    16 ar  
    34    15    35 1   
    35    16    17 ar  
    36    16    36 1   
    37    17    18 1   
    38    17    19 ar  
    39    19    37 1   
    40    20    38 1   
    41    21    22 2   
@<TRIPOS>SUBSTRUCTURE
     1 L3A         1 TEMP              0 ****  ****    0 ROOT
