@<TRIPOS>MOLECULE
3FZ
   46    49     1     0     0
SMALL
resp


@<TRIPOS>ATOM
      1 O2           35.540     34.970     19.000 os         1 3FZ      -0.430004
      2 C11          35.230     37.030     20.210 cc         1 3FZ      -0.341967
      3 C15          34.070     36.990     22.380 ca         1 3FZ       0.439885
      4 C10          34.750     37.730     21.390 ca         1 3FZ      -0.315285
      5 C16          34.950     39.110     21.630 ca         1 3FZ       0.418537
      6 C8           33.930     38.910     23.660 ca         1 3FZ       1.149118
      7 C17          35.060     35.690     20.070 cd         1 3FZ       0.200420
      8 C18          36.360     35.540     18.060 ca         1 3FZ       0.489024
      9 C19          33.080     34.860     23.190 c3         1 3FZ      -0.221813
     10 C4           33.500     39.540     27.320 c3         1 3FZ      -0.330676
     11 C14          35.890     35.730     16.740 ca         1 3FZ      -0.294597
     12 C12          38.080     36.570     16.070 ca         1 3FZ      -0.178780
     13 C13          36.740     36.250     15.750 ca         1 3FZ      -0.117322
     14 C5           38.550     36.370     17.380 ca         1 3FZ      -0.117322
     15 O3           34.210     33.690     20.970 o          1 3FZ      -0.551997
     16 C6           34.340     34.910     21.090 c          1 3FZ       0.602222
     17 C7           37.690     35.860     18.370 ca         1 3FZ      -0.294597
     18 N1           34.540     39.700     22.770 nb         1 3FZ      -0.844482
     19 N2           33.850     35.590     22.160 n          1 3FZ      -0.130695
     20 N3           33.670     37.610     23.520 nb         1 3FZ      -0.682812
     21 N4           33.550     39.500     24.840 nh         1 3FZ      -1.004060
     22 C9           33.030     38.850     26.040 c3         1 3FZ       0.605850
     23 C1           31.490     38.800     26.040 c3         1 3FZ      -0.330676
     24 C2           30.980     38.150     27.330 c3         1 3FZ       0.259533
     25 O1           31.480     38.860     28.460 os         1 3FZ      -0.459532
     26 C3           32.900     38.850     28.550 c3         1 3FZ       0.259533
     27 H11          35.760     37.620     19.470 ha         1 3FZ       0.195003
     28 H14          35.460     39.730     20.910 h4         1 3FZ       0.103239
     29 H15          32.700     33.890     22.860 h1         1 3FZ       0.110028
     30 H16          33.700     34.700     24.070 h1         1 3FZ       0.110028
     31 H17          32.210     35.440     23.490 h1         1 3FZ       0.110028
     32 H7           34.590     39.540     27.380 hc         1 3FZ       0.101351
     33 H8           33.190     40.590     27.320 hc         1 3FZ       0.101351
     34 H13          34.870     35.480     16.490 ha         1 3FZ       0.181226
     35 H52          38.730     36.980     15.310 ha         1 3FZ       0.146866
     36 H12          36.380     36.400     14.750 ha         1 3FZ       0.147819
     37 H9           39.580     36.610     17.620 ha         1 3FZ       0.147819
     38 H50          38.060     35.720     19.380 ha         1 3FZ       0.181226
     39 H18          33.790     40.470     24.950 hn         1 3FZ       0.405598
     40 H10          33.400     37.820     26.060 h1         1 3FZ      -0.044692
     41 H1           31.100     39.810     25.950 hc         1 3FZ       0.101351
     42 H2           31.130     38.250     25.170 hc         1 3FZ       0.101351
     43 H3           29.900     38.160     27.360 h1         1 3FZ       0.005726
     44 H4           31.290     37.100     27.390 h1         1 3FZ       0.005726
     45 H5           33.270     37.830     28.650 h1         1 3FZ       0.005726
     46 H6           33.190     39.380     29.460 h1         1 3FZ       0.005726
@<TRIPOS>BOND
     1     1     7 1   
     2     1     8 1   
     3     2     4 1   
     4     2     7 2   
     5     2    27 1   
     6     3     4 ar  
     7     3    19 1   
     8     3    20 ar  
     9     4     5 ar  
    10     5    18 ar  
    11     5    28 1   
    12     6    18 ar  
    13     6    20 ar  
    14     6    21 1   
    15     7    16 1   
    16     8    11 ar  
    17     8    17 ar  
    18     9    19 1   
    19     9    29 1   
    20     9    30 1   
    21     9    31 1   
    22    10    22 1   
    23    10    26 1   
    24    10    32 1   
    25    10    33 1   
    26    11    13 ar  
    27    11    34 1   
    28    12    13 ar  
    29    12    14 ar  
    30    12    35 1   
    31    13    36 1   
    32    14    17 ar  
    33    14    37 1   
    34    15    16 2   
    35    16    19 1   
    36    17    38 1   
    37    21    22 1   
    38    21    39 1   
    39    22    23 1   
    40    22    40 1   
    41    23    24 1   
    42    23    41 1   
    43    23    42 1   
    44    24    25 1   
    45    24    43 1   
    46    24    44 1   
    47    25    26 1   
    48    26    45 1   
    49    26    46 1   
@<TRIPOS>SUBSTRUCTURE
     1 3FZ         1 TEMP              0 ****  ****    0 ROOT
