@<TRIPOS>MOLECULE
L72
   42    44     1     0     0
SMALL
resp


@<TRIPOS>ATOM
      1 O2          41.3360    17.7350    12.0650 o          1 L72      -0.852065
      2 C1          40.5030    17.5780    12.9870 c          1 L72       0.907600
      3 O1          39.4360    18.2180    13.1110 o          1 L72      -0.852065
      4 C2          40.8110    16.5420    14.0700 c3         1 L72      -0.038227
      5 O3          42.0190    15.8480    13.7870 os         1 L72      -0.315956
      6 C3          42.3640    14.9370    14.7220 cc         1 L72       0.242845
      7 C6          41.8830    13.5950    14.7450 cc         1 L72      -0.238678
      8 BR1         40.6960    12.9320    13.4090 br         1 L72       0.016950
      9 C5          42.3220    12.8410    15.8030 cd         1 L72       0.089367
     10 C8          42.0380    11.4570    16.1720 ca         1 L72      -0.066037
     11 C9          43.0880    10.5560    16.4530 ca         1 L72      -0.049370
     12 C10         42.8140     9.2220    16.8100 ca         1 L72      -0.205087
     13 C11         41.4820     8.7730    16.8890 ca         1 L72      -0.261100
     14 C12         40.4260     9.6610    16.6100 ca         1 L72       0.277979
     15 N1          39.0860     9.2640    16.6790 nh         1 L72      -0.706708
     16 SF1         38.4180     7.6850    16.9540 sy         1 L72       1.140136
     17 OF4         39.0080     7.1970    18.2100 o          1 L72      -0.590126
     18 OF5         36.9630     7.8420    16.8090 o          1 L72      -0.590126
     19 CF1         39.0360     6.7270    15.5750 ca         1 L72      -0.108343
     20 CF2         38.2850     6.6760    14.3840 ca         1 L72      -0.095464
     21 CF3         38.7670     5.9320    13.2890 ca         1 L72      -0.307148
     22 CF4         39.9920     5.2430    13.3880 ca         1 L72       0.410291
     23 FF1         40.4530     4.5290    12.3340 f          1 L72      -0.198185
     24 CF5         40.7390     5.2970    14.5820 ca         1 L72      -0.307148
     25 CF6         40.2620     6.0390    15.6800 ca         1 L72      -0.095464
     26 C13         40.7050    10.9950    16.2530 ca         1 L72      -0.084237
     27 S1          43.3790    13.7910    16.8150 ss         1 L72      -0.164694
     28 C4          43.2010    15.1990    15.7830 cd         1 L72      -0.038877
     29 C7          43.9420    16.4180    16.1830 c          1 L72       0.776246
     30 O4          43.8330    17.4440    15.4770 o          1 L72      -0.748201
     31 O5          44.6570    16.3920    17.2100 o          1 L72      -0.748201
     32 H2          40.8730    17.0600    15.0290 h1         1 L72       0.051537
     33 H1          39.9880    15.8300    14.1350 h1         1 L72       0.051537
     34 H3          44.1150    10.8880    16.4050 ha         1 L72       0.118440
     35 H4          43.6260     8.5440    17.0270 ha         1 L72       0.141670
     36 H5          41.2940     7.7490    17.1710 ha         1 L72       0.200290
     37 HN2         38.4180     9.9670    16.3990 hn         1 L72       0.378004
     38 HF7         37.3470     7.2060    14.3090 ha         1 L72       0.172869
     39 HF8         38.1970     5.8900    12.3720 ha         1 L72       0.195430
     40 HF9         41.6780     4.7680    14.6550 ha         1 L72       0.195430
     41 HF0         40.8380     6.0780    16.5930 ha         1 L72       0.172869
     42 H6          39.8930    11.6720    16.0290 ha         1 L72       0.122017
@<TRIPOS>BOND
     1     1     2 1   
     2     2     3 1   
     3     2     4 1   
     4     4     5 1   
     5     4    32 1   
     6     4    33 1   
     7     5     6 1   
     8     6     7 1   
     9     6    28 2   
    10     7     8 1   
    11     7     9 2   
    12     9    10 1   
    13     9    27 1   
    14    10    11 ar  
    15    10    26 ar  
    16    11    12 ar  
    17    11    34 1   
    18    12    13 ar  
    19    12    35 1   
    20    13    14 ar  
    21    13    36 1   
    22    14    15 1   
    23    14    26 ar  
    24    15    16 1   
    25    15    37 1   
    26    16    17 2   
    27    16    18 2   
    28    16    19 1   
    29    19    20 ar  
    30    19    25 ar  
    31    20    21 ar  
    32    20    38 1   
    33    21    22 ar  
    34    21    39 1   
    35    22    23 1   
    36    22    24 ar  
    37    24    25 ar  
    38    24    40 1   
    39    25    41 1   
    40    26    42 1   
    41    27    28 1   
    42    28    29 1   
    43    29    30 1   
    44    29    31 1   
@<TRIPOS>SUBSTRUCTURE
     1 L72         1 TEMP              0 ****  ****    0 ROOT
