@<TRIPOS>MOLECULE
L83
   57    60     1     0     0
SMALL
resp


@<TRIPOS>ATOM
      1  O2         41.5080    17.6530    11.6490 o          1 L83      -0.853245
      2  C1         40.5990    17.4810    12.4900 c          1 L83       0.920780
      3  O1         39.4800    18.0390    12.4720 o          1 L83      -0.853245
      4  C2         40.8850    16.5380    13.6620 c3         1 L83      -0.057258
      5  O3         42.1830    15.9570    13.5610 os         1 L83      -0.286224
      6  C3         42.5070    15.0960    14.5540 cc         1 L83       0.194001
      7  C6         42.1050    13.7640    14.6030 cc         1 L83      -0.138972
      8  BR1        41.1300    12.9480    13.1820 br         1 L83      -0.058976
      9  C5         42.4740    13.0430    15.7310 cd         1 L83       0.048540
     10  C8         42.1340    11.6810    16.1190 ca         1 L83       0.011200
     11  C9         43.0990    10.8230    16.6550 ca         1 L83      -0.084504
     12  C10        42.7730     9.5140    17.0060 ca         1 L83      -0.200739
     13  C11        41.4770     9.0400    16.8070 ca         1 L83      -0.301105
     14  C12        40.4940     9.8790    16.2660 ca         1 L83       0.373449
     15  N1         39.1730     9.4610    16.0230 nh         1 L83      -0.929324
     16  CK1        38.8800     8.0710    15.6820 c3         1 L83       0.566848
     17  CK2        37.3500     7.8630    15.5710 c3         1 L83      -0.405458
     18  CK3        36.9750     6.4540    15.0730 c3         1 L83       0.128263
     19  NK         37.7100     6.1240    13.8430 n3         1 L83      -0.310323
     20  SR         36.9910     5.9580    12.5380 sy         1 L83       0.935919
     21  OR1        35.7140     6.6850    12.6220 o          1 L83      -0.545356
     22  OR2        37.9480     6.2520    11.4600 o          1 L83      -0.545356
     23 CT14        36.6720     4.1990    12.5000 ca         1 L83       0.035049
     24 CT15        37.7590     3.3030    12.4920 ca         1 L83      -0.124694
     25 CT16        37.5160     1.9150    12.4800 ca         1 L83      -0.147771
     26 CT17        36.1930     1.4310    12.4790 ca         1 L83      -0.124771
     27 CT18        35.1090     2.3320    12.4900 ca         1 L83      -0.147771
     28 CT19        35.3460     3.7210    12.5040 ca         1 L83      -0.124694
     29  CK4        39.1750     6.2320    13.9220 c3         1 L83       0.128263
     30  CK5        39.5890     7.6410    14.3720 c3         1 L83      -0.405458
     31  C13        40.8300    11.1970    15.9490 ca         1 L83      -0.205785
     32  S1         43.4980    14.0500    16.7180 ss         1 L83      -0.170874
     33  C4         43.3220    15.4160    15.6300 cd         1 L83      -0.040109
     34  C7         44.0450    16.6570    15.9980 c          1 L83       0.782426
     35  O5         44.7330    16.6640    17.0430 o          1 L83      -0.749780
     36  O4         43.9490    17.6650    15.2620 o          1 L83      -0.749780
     37  H1         40.0980    15.7840    13.7300 h1         1 L83       0.054624
     38  H2         40.8410    17.1160    14.5850 h1         1 L83       0.054624
     39  H3         44.1130    11.1670    16.8000 ha         1 L83       0.117676
     40  H4         43.5250     8.8670    17.4320 ha         1 L83       0.142904
     41  H5         41.2410     8.0210    17.0760 ha         1 L83       0.163318
     42  HN2        38.4390    10.1450    16.1370 hn         1 L83       0.382045
     43 HK11        39.2590     7.4690    16.5080 h1         1 L83      -0.011032
     44 HK21        36.8770     8.0460    16.5360 hc         1 L83       0.138144
     45 HK22        36.9350     8.6030    14.8870 hc         1 L83       0.138144
     46 HK31        37.2040     5.6980    15.8230 h1         1 L83       0.032441
     47 HK32        35.9000     6.3860    14.9020 h1         1 L83       0.032441
     48 HT12        38.7710     3.6780    12.4930 ha         1 L83       0.145247
     49 HT13        38.3450     1.2230    12.4720 ha         1 L83       0.142818
     50 HT14        36.0080     0.3670    12.4690 ha         1 L83       0.138983
     51 HT15        34.0950     1.9590    12.4870 ha         1 L83       0.142818
     52 HT16        34.5140     4.4100    12.5080 ha         1 L83       0.145247
     53 HK41        39.5250     5.4660    14.6130 h1         1 L83       0.032441
     54 HK42        39.6130     5.9830    12.9550 h1         1 L83       0.032441
     55 HK52        39.3500     8.3540    13.5830 hc         1 L83       0.138144
     56 HK51        40.6710     7.6850    14.4990 hc         1 L83       0.138144
     57  H6         40.0960    11.8860    15.5700 ha         1 L83       0.135222
@<TRIPOS>BOND
     1     1     2 1   
     2     2     3 1   
     3     2     4 1   
     4     4     5 1   
     5     4    37 1   
     6     4    38 1   
     7     5     6 1   
     8     6     7 1   
     9     6    33 2   
    10     7     8 1   
    11     7     9 2   
    12     9    10 1   
    13     9    32 1   
    14    10    11 ar  
    15    10    31 ar  
    16    11    12 ar  
    17    11    39 1   
    18    12    13 ar  
    19    12    40 1   
    20    13    14 ar  
    21    13    41 1   
    22    14    15 1   
    23    14    31 ar  
    24    15    16 1   
    25    15    42 1   
    26    16    17 1   
    27    16    30 1   
    28    16    43 1   
    29    17    18 1   
    30    17    44 1   
    31    17    45 1   
    32    18    19 1   
    33    18    46 1   
    34    18    47 1   
    35    19    20 1   
    36    19    29 1   
    37    20    21 2   
    38    20    22 2   
    39    20    23 1   
    40    23    24 ar  
    41    23    28 ar  
    42    24    25 ar  
    43    24    48 1   
    44    25    26 ar  
    45    25    49 1   
    46    26    27 ar  
    47    26    50 1   
    48    27    28 ar  
    49    27    51 1   
    50    28    52 1   
    51    29    30 1   
    52    29    53 1   
    53    29    54 1   
    54    30    55 1   
    55    30    56 1   
    56    31    57 1   
    57    32    33 1   
    58    33    34 1   
    59    34    35 1   
    60    34    36 1   
@<TRIPOS>SUBSTRUCTURE
     1 L83         1 TEMP              0 ****  ****    0 ROOT
