@<TRIPOS>MOLECULE
L39
   48    49     1     0     0
SMALL
resp


@<TRIPOS>ATOM
      1  C1         24.2760    10.8580    30.5310 c3         1 L39      -0.241692
      2  C2         22.8720    11.1950    30.0240 c3         1 L39       0.401429
      3  O1         21.9940    11.3730    31.1350 os         1 L39      -0.446234
      4  C3         21.3010    10.2940    31.6580 ca         1 L39       0.685682
      5  N1         21.6710     9.0500    31.2480 nb         1 L39      -0.569990
      6  C4         20.9500     8.0000    31.6670 ca         1 L39       0.540839
      7  C5         19.8660     8.1180    32.5260 ca         1 L39      -0.651964
      8  C6         19.4930     9.3840    32.9420 ca         1 L39       0.626962
      9  N2         18.3660     9.4440    33.7530 nh         1 L39      -0.943362
     10  C7         20.2180    10.5090    32.5170 ca         1 L39      -0.513667
     11  C8         19.8680    11.8730    32.8960 cg         1 L39       0.477402
     12  N3         19.5990    12.9600    33.1900 n1         1 L39      -0.526136
     13  N4         21.4270     6.8290    31.1140 n          1 L39      -0.454252
     14  C9         20.8580     5.6230    31.0220 c          1 L39       0.680509
     15  O2         19.7390     5.3450    31.4460 o          1 L39      -0.594415
     16  C10        21.6500     4.5670    30.2610 c3         1 L39      -0.143220
     17  C11        23.0150     4.2720    30.8750 ca         1 L39      -0.014471
     18  C12        24.1180     5.0810    30.5810 ca         1 L39       0.183644
     19  O12        23.9100     6.1670    29.7480 os         1 L39      -0.176039
     20 C121        24.9550     7.1170    29.5480 c3         1 L39      -0.241478
     21  C13        25.3570     4.7550    31.1460 ca         1 L39      -0.217748
     22  C14        25.5080     3.6740    32.0310 ca         1 L39      -0.211317
     23  N14        26.8470     3.4090    32.6230 no         1 L39       0.877338
     24  ON1        26.9380     2.7390    33.6460 o          1 L39      -0.479202
     25  ON2        27.8300     3.9030    32.0770 o          1 L39      -0.479202
     26  C15        24.3850     2.8730    32.3280 ca         1 L39       0.336622
     27  C16        23.1530     3.1840    31.7380 ca         1 L39      -0.275237
     28  O15        24.5280     1.8160    33.2070 os         1 L39      -0.247847
     29 C151        23.6290     0.7110    33.1400 c3         1 L39      -0.097349
     30  H1         24.9810    10.7710    29.7050 hc         1 L39       0.064659
     31  H2         24.6270    11.6410    31.2030 hc         1 L39       0.064659
     32  H3         24.2800     9.9170    31.0800 hc         1 L39       0.064659
     33  H4         22.9070    12.1390    29.4790 h1         1 L39      -0.021648
     34  H5         22.5080    10.4570    29.3060 h1         1 L39      -0.021648
     35  H6         19.3080     7.2560    32.8490 ha         1 L39       0.280812
     36  H7         17.8990     8.5880    34.0370 hn         1 L39       0.429360
     37  H8         17.9570    10.3440    33.9930 hn         1 L39       0.429360
     38  H9         22.3300     6.9540    30.6850 hn         1 L39       0.214093
     39  H10        21.0730     3.6500    30.1770 hc         1 L39       0.076523
     40  H11        21.7740     4.9480    29.2520 hc         1 L39       0.076523
     41 H121        25.2820     7.5650    30.4870 h1         1 L39       0.128951
     42 H122        25.8130     6.6720    29.0420 h1         1 L39       0.128951
     43 H123        24.5870     7.9250    28.9150 h1         1 L39       0.128951
     44  H13        26.2200     5.3580    30.9140 ha         1 L39       0.192619
     45  H16        22.2860     2.5790    31.9490 ha         1 L39       0.177619
     46 H151        23.9630    -0.0600    33.8340 h1         1 L39       0.099985
     47 H152        22.6110     0.9730    33.4250 h1         1 L39       0.099985
     48 H153        23.6160     0.2650    32.1470 h1         1 L39       0.099985
@<TRIPOS>BOND
     1     1     2 1   
     2     1    30 1   
     3     1    31 1   
     4     1    32 1   
     5     2     3 1   
     6     2    33 1   
     7     2    34 1   
     8     3     4 1   
     9     4     5 ar  
    10     4    10 ar  
    11     5     6 ar  
    12     6     7 ar  
    13     6    13 1   
    14     7     8 ar  
    15     7    35 1   
    16     8     9 1   
    17     8    10 ar  
    18     9    36 1   
    19     9    37 1   
    20    10    11 1   
    21    11    12 3   
    22    13    14 1   
    23    13    38 1   
    24    14    15 2   
    25    14    16 1   
    26    16    17 1   
    27    16    39 1   
    28    16    40 1   
    29    17    18 ar  
    30    17    27 ar  
    31    18    19 1   
    32    18    21 ar  
    33    19    20 1   
    34    20    41 1   
    35    20    42 1   
    36    20    43 1   
    37    21    22 ar  
    38    21    44 1   
    39    22    23 1   
    40    22    26 ar  
    41    23    24 1   
    42    23    25 1   
    43    26    27 ar  
    44    26    28 1   
    45    27    45 1   
    46    28    29 1   
    47    29    46 1   
    48    29    47 1   
    49    29    48 1   
@<TRIPOS>SUBSTRUCTURE
     1 L39         1 TEMP              0 ****  ****    0 ROOT
