@<TRIPOS>MOLECULE
L58
   47    48     1     0     0
SMALL
resp


@<TRIPOS>ATOM
      1  OU1        24.2850    12.3290    28.3280 oh         1 L58      -0.726268
      2  CU1        23.5040    12.4810    29.5020 c3         1 L58       0.286326
      3  CU2        22.9870    11.1260    30.0090 c3         1 L58       0.194171
      4  O1         22.1130    11.3520    31.1180 os         1 L58      -0.547623
      5  C3         21.3840    10.2940    31.6330 ca         1 L58       0.989274
      6  N1         21.7290     9.0440    31.2230 nb         1 L58      -0.804660
      7  C4         20.9900     8.0070    31.6470 ca         1 L58       0.719236
      8  C5         19.9090     8.1490    32.5070 ca         1 L58      -0.788743
      9  C6         19.5590     9.4230    32.9200 ca         1 L58       0.751474
     10  N2         18.4400     9.5050    33.7400 nh         1 L58      -0.958068
     11  C7         20.3040    10.5320    32.4890 ca         1 L58      -0.732800
     12  C8         19.9760    11.9040    32.8620 cg         1 L58       0.540540
     13  N3         19.7240    12.9960    33.1510 n1         1 L58      -0.544171
     14  N4         21.4470     6.8220    31.1060 n          1 L58      -0.493949
     15  C9         20.8620     5.6230    31.0280 c          1 L58       0.678513
     16  O2         19.7370     5.3650    31.4500 o          1 L58      -0.598421
     17  C10        21.6460     4.5490    30.2820 c3         1 L58      -0.106305
     18  C11        23.0170     4.2600    30.8880 ca         1 L58      -0.023359
     19  C12        24.1160     5.0840    30.5960 ca         1 L58       0.125651
     20  O12        23.8940     6.1740    29.7720 os         1 L58      -0.165630
     21 C121        24.9290     7.1390    29.5900 c3         1 L58      -0.234353
     22  C13        25.3630     4.7660    31.1520 ca         1 L58      -0.152119
     23  C14        25.5000     3.6730    32.0090 ca         1 L58      -0.369874
     24  C15        24.4120     2.8580    32.3080 ca         1 L58       0.410588
     25  C16        23.1690     3.1580    31.7360 ca         1 L58      -0.289374
     26  O15        24.6400     1.8060    33.1700 os         1 L58      -0.376088
     27 C151        23.7220     0.7160    33.1860 c3         1 L58       0.035729
     28  HU1        23.6930    12.1650    27.5700 ho         1 L58       0.435279
     29  HU2        24.1050    12.9600    30.2770 h1         1 L58       0.031837
     30  HU3        22.6670    13.1500    29.2940 h1         1 L58       0.031837
     31  HU4        22.4490    10.6180    29.2050 h1         1 L58       0.038665
     32  HU5        23.8210    10.4850    30.3030 h1         1 L58       0.038665
     33  H6         19.3380     7.2970    32.8370 ha         1 L58       0.305680
     34  H7         17.9520     8.6580    34.0160 hn         1 L58       0.428753
     35  H8         18.0430    10.4110    33.9760 hn         1 L58       0.428753
     36  H9         22.3580     6.9200    30.6840 hn         1 L58       0.243443
     37  H10        21.0660     3.6320    30.2170 hc         1 L58       0.054081
     38  H11        21.7670     4.9120    29.2660 hc         1 L58       0.054081
     39 H121        25.8010     6.7080    29.0960 h1         1 L58       0.122697
     40 H122        24.5600     7.9440    28.9550 h1         1 L58       0.122697
     41 H123        25.2350     7.5870    30.5370 h1         1 L58       0.122697
     42  H13        26.2360     5.3620    30.9360 ha         1 L58       0.165453
     43  H14        26.4620     3.4450    32.4450 ha         1 L58       0.198144
     44  H16        22.3140     2.5340    31.9470 ha         1 L58       0.169793
     45 H151        24.0960    -0.0560    33.8590 h1         1 L58       0.062583
     46 H152        22.7350     1.0020    33.5460 h1         1 L58       0.062583
     47 H153        23.6200     0.2630    32.2000 h1         1 L58       0.062583
@<TRIPOS>BOND
     1     1     2 1   
     2     1    28 1   
     3     2     3 1   
     4     2    29 1   
     5     2    30 1   
     6     3     4 1   
     7     3    31 1   
     8     3    32 1   
     9     4     5 1   
    10     5     6 ar  
    11     5    11 ar  
    12     6     7 ar  
    13     7     8 ar  
    14     7    14 1   
    15     8     9 ar  
    16     8    33 1   
    17     9    10 1   
    18     9    11 ar  
    19    10    34 1   
    20    10    35 1   
    21    11    12 1   
    22    12    13 3   
    23    14    15 1   
    24    14    36 1   
    25    15    16 2   
    26    15    17 1   
    27    17    18 1   
    28    17    37 1   
    29    17    38 1   
    30    18    19 ar  
    31    18    25 ar  
    32    19    20 1   
    33    19    22 ar  
    34    20    21 1   
    35    21    39 1   
    36    21    40 1   
    37    21    41 1   
    38    22    23 ar  
    39    22    42 1   
    40    23    24 ar  
    41    23    43 1   
    42    24    25 ar  
    43    24    26 1   
    44    25    44 1   
    45    26    27 1   
    46    27    45 1   
    47    27    46 1   
    48    27    47 1   
@<TRIPOS>SUBSTRUCTURE
     1 L58         1 TEMP              0 ****  ****    0 ROOT
