@<TRIPOS>MOLECULE
L4C
   50    53     1     0     0
SMALL
resp


@<TRIPOS>ATOM
      1 CQ1         12.5710     5.3510    -2.7660 c3         1 L4C       0.048819
      2 OQ1         13.7080     5.1550    -1.9290 os         1 L4C      -0.406380
      3 C12         14.3530     3.9580    -2.1070 ca         1 L4C       0.521820
      4 C13         14.8800     3.2990    -0.9810 ca         1 L4C      -0.364659
      5 C14         15.4000     1.9960    -1.1050 ca         1 L4C      -0.104657
      6 C9          15.4240     1.3430    -2.3580 cp         1 L4C      -0.013263
      7 C8          15.7610    -0.0830    -2.4960 cp         1 L4C       0.042801
      8 C7          16.4100    -0.5580    -3.6480 ca         1 L4C      -0.117577
      9 C6          16.5940    -1.9310    -3.8580 ca         1 L4C      -0.155805
     10 C5          16.0900    -2.8630    -2.9350 ca         1 L4C      -0.251341
     11 C4          15.4300    -2.4160    -1.7640 ca         1 L4C       0.287463
     12 C3          14.8180    -3.3960    -0.7510 c3         1 L4C      -0.275515
     13 CO1         15.1630    -4.8770    -1.0180 ca         1 L4C       0.096589
     14 CO2         14.3270    -5.7680    -1.7330 ca         1 L4C      -0.150400
     15 CO3         14.7020    -7.1140    -1.9230 ca         1 L4C      -0.154953
     16 CO4         15.9320    -7.5800    -1.4260 ca         1 L4C      -0.082709
     17 CO5         16.7920    -6.7000    -0.7600 ca         1 L4C      -0.154953
     18 CO6         16.3960    -5.3710    -0.5450 ca         1 L4C      -0.150400
     19 N3          15.2310    -3.0390     0.6070 nh         1 L4C      -0.508940
     20 C2          14.2080    -2.6970     1.3870 cz         1 L4C       0.755261
     21 N2          14.3760    -2.3750     2.6720 nh         1 L4C      -0.976067
     22 N1          13.0450    -2.7270     0.7210 n          1 L4C      -0.137229
     23 C1          11.7300    -2.3300     1.2410 c3         1 L4C      -0.257533
     24 C16         13.2980    -3.1410    -0.6220 c          1 L4C       0.590499
     25 O1          12.4260    -3.2220    -1.4950 o          1 L4C      -0.446715
     26 C15         15.3170    -1.0200    -1.5420 ca         1 L4C      -0.255405
     27 C10         15.0020     2.0600    -3.4970 ca         1 L4C      -0.104657
     28 C11         14.4600     3.3470    -3.3730 ca         1 L4C      -0.364659
     29 HQ1         11.9720     6.1860    -2.4060 h1         1 L4C       0.064936
     30 HQ2         12.8590     5.5870    -3.7900 h1         1 L4C       0.064936
     31 HQ3         11.9230     4.4730    -2.7730 h1         1 L4C       0.064936
     32 H           14.8190     3.7670    -0.0100 ha         1 L4C       0.182490
     33 H12         15.7380     1.4790    -0.2210 ha         1 L4C       0.146207
     34 H8          16.7420     0.1380    -4.4010 ha         1 L4C       0.149907
     35 H7          17.0960    -2.2500    -4.7560 ha         1 L4C       0.172480
     36 H6          16.2160    -3.9140    -3.1520 ha         1 L4C       0.196329
     37 HO2         13.3830    -5.4460    -2.1400 ha         1 L4C       0.152478
     38 HO3         14.0450    -7.7900    -2.4490 ha         1 L4C       0.162718
     39 HO4         16.2290    -8.6070    -1.5340 ha         1 L4C       0.151227
     40 HO5         17.7480    -7.0430    -0.3880 ha         1 L4C       0.162718
     41 HO6         17.0550    -4.7250     0.0060 ha         1 L4C       0.152478
     42 H5          16.2100    -3.0090     0.8920 hn         1 L4C       0.411622
     43 H4          13.6320    -2.0600     3.2930 hn         1 L4C       0.481682
     44 H1          10.9200    -2.8080     0.6890 h1         1 L4C       0.147509
     45 H2          11.6300    -2.6000     2.2920 h1         1 L4C       0.147509
     46 H3          11.6160    -1.2510     1.1440 h1         1 L4C       0.147509
     47 H13         14.8060    -0.6510    -0.6630 ha         1 L4C       0.120513
     48 H9          15.0100     1.5950    -4.4720 ha         1 L4C       0.146207
     49 H10         14.0880     3.8350    -4.2590 ha         1 L4C       0.182490
     50 H14         15.3180    -2.3680     3.0650 hn         1 L4C       0.481682
@<TRIPOS>BOND
     1     1     2 1   
     2     1    29 1   
     3     1    30 1   
     4     1    31 1   
     5     2     3 1   
     6     3     4 ar  
     7     3    28 ar  
     8     4     5 ar  
     9     4    32 1   
    10     5     6 ar  
    11     5    33 1   
    12     6     7 1   
    13     6    27 ar  
    14     7     8 ar  
    15     7    26 ar  
    16     8     9 ar  
    17     8    34 1   
    18     9    10 ar  
    19     9    35 1   
    20    10    11 ar  
    21    10    36 1   
    22    11    12 1   
    23    11    26 ar  
    24    12    13 1   
    25    12    19 1   
    26    12    24 1   
    27    13    14 ar  
    28    13    18 ar  
    29    14    15 ar  
    30    14    37 1   
    31    15    16 ar  
    32    15    38 1   
    33    16    17 ar  
    34    16    39 1   
    35    17    18 ar  
    36    17    40 1   
    37    18    41 1   
    38    19    20 2   
    39    19    42 1   
    40    20    21 1   
    41    20    22 1   
    42    21    43 1   
    43    21    50 1   
    44    22    23 1   
    45    22    24 1   
    46    23    44 1   
    47    23    45 1   
    48    23    46 1   
    49    24    25 2   
    50    26    47 1   
    51    27    28 ar  
    52    27    48 1   
    53    28    49 1   
@<TRIPOS>SUBSTRUCTURE
     1 L4C         1 TEMP              0 ****  ****    0 ROOT
