@<TRIPOS>MOLECULE
L4J
   45    48     1     0     0
SMALL
resp


@<TRIPOS>ATOM
      1 C1          11.7110    -2.3100     1.2660 c3         1 L4J      -0.243462
      2 N1          13.0310    -2.6520     0.7220 n          1 L4J      -0.130586
      3 C2          14.2010    -2.6280     1.3770 cz         1 L4J       0.737001
      4 N2          14.3780    -2.3570     2.6730 nh         1 L4J      -0.965917
      5 N3          15.2220    -2.9200     0.5740 nh         1 L4J      -0.477206
      6 C3          14.7970    -3.2520    -0.7880 c3         1 L4J      -0.328360
      7 CO1         15.1410    -4.7330    -1.0690 ca         1 L4J       0.115683
      8 CO2         16.3620    -5.2520    -0.5870 ca         1 L4J      -0.154814
      9 CO3         16.7320    -6.5910    -0.7920 ca         1 L4J      -0.154676
     10 CO4         15.8600    -7.4580    -1.4610 ca         1 L4J      -0.080609
     11 CO5         14.6410    -6.9710    -1.9580 ca         1 L4J      -0.154676
     12 CO6         14.2900    -5.6170    -1.7760 ca         1 L4J      -0.154814
     13 C4          15.3790    -2.2440    -1.7950 ca         1 L4J       0.277572
     14 C5          15.9520    -2.6550    -3.0210 ca         1 L4J      -0.225301
     15 C6          16.4340    -1.6940    -3.9270 ca         1 L4J      -0.189158
     16 C7          16.3360    -0.3220    -3.6310 ca         1 L4J      -0.040802
     17 C8          15.7940     0.1250    -2.4070 cp         1 L4J      -0.066497
     18 C9          15.6710     1.5690    -2.0920 cp         1 L4J      -0.171854
     19 C14         15.3830     2.0350    -0.7900 ca         1 L4J       0.123708
     20 C13         15.3530     3.4190    -0.5360 ca         1 L4J      -0.505026
     21 C12         15.5970     4.3050    -1.5950 ca         1 L4J       0.446548
     22 N11         15.8280     3.8920    -2.8510 nb         1 L4J      -0.648825
     23 C10         15.8600     2.5640    -3.0760 ca         1 L4J       0.398987
     24 C15         15.3330    -0.8570    -1.5010 ca         1 L4J      -0.181444
     25 C16         13.2770    -3.0090    -0.6370 c          1 L4J       0.593435
     26 O1          12.3980    -3.0670    -1.5060 o          1 L4J      -0.442020
     27 H1          10.9190    -2.8650     0.7630 h1         1 L4J       0.144092
     28 H2          11.6550    -2.5320     2.3310 h1         1 L4J       0.144092
     29 H3          11.5240    -1.2460     1.1210 h1         1 L4J       0.144092
     30 H4          15.3230    -2.3600     3.0600 hn         1 L4J       0.479865
     31 H5          16.2010    -2.9160     0.8570 hn         1 L4J       0.404398
     32 HO2         17.0270    -4.6210    -0.0260 ha         1 L4J       0.154679
     33 HO3         17.6770    -6.9510    -0.4080 ha         1 L4J       0.163245
     34 HO4         16.1300    -8.4940    -1.5740 ha         1 L4J       0.151775
     35 HO5         13.9710    -7.6400    -2.4760 ha         1 L4J       0.163245
     36 HO6         13.3490    -5.2830    -2.1750 ha         1 L4J       0.154679
     37 H6          16.0280    -3.7000    -3.2900 ha         1 L4J       0.197372
     38 H7          16.8720    -2.0020    -4.8660 ha         1 L4J       0.180622
     39 H8          16.6870     0.3860    -4.3650 ha         1 L4J       0.135520
     40 H12         15.2240     1.3430     0.0220 ha         1 L4J       0.109390
     41 H           15.1720     3.8040     0.4550 ha         1 L4J       0.204542
     42 H11         15.6060     5.3720    -1.4290 h4         1 L4J       0.057551
     43 H9          16.0320     2.2850    -4.1010 h4         1 L4J       0.049883
     44 H13         14.8920    -0.5360    -0.5700 ha         1 L4J       0.104207
     45 H14         13.6380    -2.0620     3.3080 hn         1 L4J       0.479865
@<TRIPOS>BOND
     1     1     2 1   
     2     1    27 1   
     3     1    28 1   
     4     1    29 1   
     5     2     3 2   
     6     2    25 1   
     7     3     4 1   
     8     3     5 1   
     9     4    30 1   
    10     4    45 1   
    11     5     6 1   
    12     5    31 1   
    13     6     7 1   
    14     6    13 1   
    15     6    25 1   
    16     7     8 ar  
    17     7    12 ar  
    18     8     9 ar  
    19     8    32 1   
    20     9    10 ar  
    21     9    33 1   
    22    10    11 ar  
    23    10    34 1   
    24    11    12 ar  
    25    11    35 1   
    26    12    36 1   
    27    13    14 ar  
    28    13    24 ar  
    29    14    15 ar  
    30    14    37 1   
    31    15    16 ar  
    32    15    38 1   
    33    16    17 ar  
    34    16    39 1   
    35    17    18 1   
    36    17    24 ar  
    37    18    19 ar  
    38    18    23 ar  
    39    19    20 ar  
    40    19    40 1   
    41    20    21 ar  
    42    20    41 1   
    43    21    22 ar  
    44    21    42 1   
    45    22    23 ar  
    46    23    43 1   
    47    24    44 1   
    48    25    26 2   
@<TRIPOS>SUBSTRUCTURE
     1 L4J         1 TEMP              0 ****  ****    0 ROOT
