@<TRIPOS>MOLECULE
L3B
   42    44     1     0     0
SMALL
resp


@<TRIPOS>ATOM
      1 CC2         14.8880    -5.3200    -2.2410 c3         1 L3B      -0.291216
      2 CC1         15.5150    -4.5190    -1.0880 c3         1 L3B       0.154982
      3 C3          15.0250    -3.0580    -0.8410 c3         1 L3B      -0.052364
      4 C4          15.5970    -1.9890    -1.7960 ca         1 L3B       0.084897
      5 C5          16.2810    -2.3330    -2.9860 ca         1 L3B      -0.222387
      6 C6          16.6930    -1.3360    -3.8830 ca         1 L3B      -0.140309
      7 C7          16.4370     0.0160    -3.6010 ca         1 L3B      -0.115364
      8 C8          15.8210     0.4090    -2.3950 cp         1 L3B       0.060677
      9 C9          15.5580     1.8390    -2.1030 cp         1 L3B      -0.003572
     10 C10         15.2600     2.7490    -3.1450 ca         1 L3B      -0.114053
     11 C11         14.9360     4.0930    -2.8720 ca         1 L3B      -0.215853
     12 C12         14.9160     4.5570    -1.5460 ca         1 L3B      -0.014069
     13 C13         15.2430     3.6820    -0.4990 ca         1 L3B      -0.040571
     14 CL1         15.2360     4.2630     1.1260 cl         1 L3B      -0.097636
     15 C14         15.5620     2.3370    -0.7790 ca         1 L3B      -0.035911
     16 C15         15.4200    -0.6110    -1.5010 ca         1 L3B      -0.182474
     17 N3          15.3490    -2.7410     0.5430 nh         1 L3B      -0.806488
     18 C2          14.2750    -2.5000     1.2920 cz         1 L3B       0.956546
     19 N2          14.3660    -2.2680     2.6060 nh         1 L3B      -1.024730
     20 N1          13.1490    -2.5540     0.5670 n          1 L3B      -0.293510
     21 C1          11.7910    -2.2620     1.0450 c3         1 L3B      -0.294381
     22 C16         13.4890    -2.9220    -0.7720 c          1 L3B       0.712916
     23 O1          12.6680    -3.0620    -1.6830 o          1 L3B      -0.472331
     24 HC3         14.9640    -4.8000    -3.1910 hc         1 L3B       0.094488
     25 HC4         15.3880    -6.2810    -2.3610 hc         1 L3B       0.094488
     26 HC5         13.8330    -5.5290    -2.0640 hc         1 L3B       0.094488
     27 H6          16.1300    -3.3530    -3.2560 ha         1 L3B       0.171879
     28 HC1         16.5960    -4.1300    -1.2260 hc         1 L3B       0.022339
     29 HC2         15.3700    -5.1060    -0.1790 hc         1 L3B       0.022339
     30 H7          17.1950    -1.6100    -4.8010 ha         1 L3B       0.165879
     31 H8          16.7290     0.7570    -4.3280 ha         1 L3B       0.145256
     32 H9          15.2340     2.4070    -4.1700 ha         1 L3B       0.145654
     33 H10         14.6760     4.7670    -3.6760 ha         1 L3B       0.176019
     34 H11         14.6490     5.5820    -1.3310 ha         1 L3B       0.138149
     35 H12         15.8090     1.6830     0.0400 ha         1 L3B       0.096413
     36 H13         14.9150    -0.3230    -0.5920 ha         1 L3B       0.138667
     37 H5          16.3100    -2.7380     0.8910 hn         1 L3B       0.470094
     38 H4          13.5850    -2.0120     3.2060 hn         1 L3B       0.491349
     39 H1          11.6540    -2.6250     2.0630 h1         1 L3B       0.162784
     40 H2          11.6290    -1.1850     1.0380 h1         1 L3B       0.162784
     41 H3          11.0340    -2.7260     0.4120 h1         1 L3B       0.162784
     42 H14         15.2860    -2.2730     3.0470 hn         1 L3B       0.491349
@<TRIPOS>BOND
     1     1     2 1   
     2     1    24 1   
     3     1    25 1   
     4     1    26 1   
     5     2     3 1   
     6     2    28 1   
     7     2    29 1   
     8     3     4 1   
     9     3    17 1   
    10     3    22 1   
    11     4     5 ar  
    12     4    16 ar  
    13     5     6 ar  
    14     5    27 1   
    15     6     7 ar  
    16     6    30 1   
    17     7     8 ar  
    18     7    31 1   
    19     8     9 1   
    20     8    16 ar  
    21     9    10 ar  
    22     9    15 ar  
    23    10    11 ar  
    24    10    32 1   
    25    11    12 ar  
    26    11    33 1   
    27    12    13 ar  
    28    12    34 1   
    29    13    14 1   
    30    13    15 ar  
    31    15    35 1   
    32    16    36 1   
    33    17    18 2   
    34    17    37 1   
    35    18    19 1   
    36    18    20 1   
    37    19    38 1   
    38    19    42 1   
    39    20    21 1   
    40    20    22 1   
    41    21    39 1   
    42    21    40 1   
    43    21    41 1   
    44    22    23 2   
@<TRIPOS>SUBSTRUCTURE
     1 L3B         1 TEMP              0 ****  ****    0 ROOT
