@<TRIPOS>MOLECULE
L33
   38    40     1     0     0
SMALL
resp


@<TRIPOS>ATOM
      1 O1           3.6160   -50.1320     7.3800 o          1 L33      -0.792412
      2 C1           3.0170   -49.1140     6.9680 c          1 L33       0.867928
      3 O2           3.5640   -47.9850     6.9020 o          1 L33      -0.792412
      4 C2           1.6040   -49.2460     6.5420 cc         1 L33       0.053471
      5 C3          -0.3110   -50.4720     6.2830 ca         1 L33       0.370246
      6 C4          -1.3180   -51.4540     6.2650 ca         1 L33      -0.388901
      7 C5          -2.5970   -51.1140     5.7750 ca         1 L33      -0.107094
      8 C6          -2.8520   -49.8050     5.3100 ca         1 L33      -0.275372
      9 C7          -1.8340   -48.8340     5.3310 ca         1 L33      -0.166074
     10 C8          -0.5360   -49.1420     5.8190 ca         1 L33       0.014123
     11 C9           0.6790   -48.3880     5.9870 cd         1 L33      -0.195148
     12 C10          0.8820   -46.9420     5.6150 c3         1 L33       0.081193
     13 C11          0.6890   -45.9800     6.8000 c3         1 L33      -0.020668
     14 C12         -0.7340   -45.9720     7.3810 c3         1 L33      -0.071128
     15 O3          -1.6590   -45.6660     6.3440 os         1 L33      -0.379302
     16 C13         -2.9590   -45.3530     6.6810 ca         1 L33       0.501760
     17 C16         -3.4420   -45.2780     8.0130 ca         1 L33      -0.395458
     18 C15         -4.7730   -44.8870     8.2640 ca         1 L33       0.006996
     19 C14         -5.6350   -44.5830     7.1950 ca         1 L33      -0.083344
     20 C17         -5.1780   -44.6970     5.8690 ca         1 L33       0.006996
     21 C18         -3.8500   -45.0890     5.6180 ca         1 L33      -0.395458
     22 CL1         -7.2450   -44.0500     7.5070 cl         1 L33      -0.162224
     23 H1          -1.0980   -52.4490     6.6220 ha         1 L33       0.177115
     24 H2          -3.3720   -51.8640     5.7580 ha         1 L33       0.119321
     25 H3          -3.8400   -49.5450     4.9390 ha         1 L33       0.138029
     26 H4          -2.0370   -47.8280     4.9820 ha         1 L33       0.158538
     27 H5           0.2120   -46.6670     4.8030 hc         1 L33       0.002479
     28 H6           1.8880   -46.8040     5.2120 hc         1 L33       0.002479
     29 H7           0.9410   -44.9680     6.4740 hc         1 L33       0.046287
     30 H8           1.3990   -46.2210     7.5930 hc         1 L33       0.046287
     31 H9          -0.7710   -45.2290     8.1740 h1         1 L33       0.096788
     32 H10         -0.9780   -46.9320     7.8280 h1         1 L33       0.096788
     33 H11         -2.8140   -45.5080     8.8530 ha         1 L33       0.181817
     34 H19         -3.5010   -45.1800     4.6040 ha         1 L33       0.181817
     35 H22         -5.8320   -44.4760     5.0390 ha         1 L33       0.130411
     36 H12         -5.1200   -44.8090     9.2810 ha         1 L33       0.130411
     37 N1           1.0090   -50.4890     6.6900 na         1 L33      -0.572509
     38 H            1.5400   -51.2630     7.0740 hn         1 L33       0.386224
@<TRIPOS>BOND
     1     1     2 1   
     2     2     3 1   
     3     2     4 1   
     4     4    11 2   
     5     4    37 1   
     6     5     6 ar  
     7     5    10 ar  
     8     5    37 1   
     9     6     7 ar  
    10     6    23 1   
    11     7     8 ar  
    12     7    24 1   
    13     8     9 ar  
    14     8    25 1   
    15     9    10 ar  
    16     9    26 1   
    17    10    11 1   
    18    11    12 1   
    19    12    13 1   
    20    12    27 1   
    21    12    28 1   
    22    13    14 1   
    23    13    29 1   
    24    13    30 1   
    25    14    15 1   
    26    14    31 1   
    27    14    32 1   
    28    15    16 1   
    29    16    17 ar  
    30    16    21 ar  
    31    17    18 ar  
    32    17    33 1   
    33    18    19 ar  
    34    18    36 1   
    35    19    20 ar  
    36    19    22 1   
    37    20    21 ar  
    38    20    35 1   
    39    21    34 1   
    40    37    38 1   
@<TRIPOS>SUBSTRUCTURE
     1 L33         1 TEMP              0 ****  ****    0 ROOT
