@<TRIPOS>MOLECULE
L25
   38    39     1     0     0
SMALL
resp


@<TRIPOS>ATOM
      1  C1         23.9840    12.4670    30.2870 c3         1 L25      -0.338125
      2  C2         23.2740    11.1270    30.4970 c3         1 L25       0.411406
      3  O1         22.1370    11.3620    31.3250 os         1 L25      -0.462114
      4  C3         21.3540    10.2950    31.7330 ca         1 L25       0.926700
      5  N1         21.7200     9.0560    31.3100 nb         1 L25      -0.832195
      6  C4         20.9620     8.0100    31.6660 ca         1 L25       0.784730
      7  C5         19.8430     8.1240    32.4780 ca         1 L25      -0.830258
      8  C6         19.4690     9.3870    32.9060 ca         1 L25       0.800194
      9  N2         18.3210     9.4440    33.6870 nh         1 L25      -0.975669
     10  C7         20.2250    10.5100    32.5300 ca         1 L25      -0.728056
     11  C8         19.8750    11.8720    32.9140 cg         1 L25       0.522795
     12  N3         19.6060    12.9580    33.2120 n1         1 L25      -0.536171
     13  N4         21.4570     6.8520    31.1050 n          1 L25      -0.625831
     14  C9         20.9160     5.6350    31.0010 c          1 L25       0.831169
     15  O2         19.8100     5.3230    31.4380 o          1 L25      -0.603741
     16  C10        21.7260     4.6150    30.2080 c3         1 L25      -0.563655
     17  C11        23.0590     4.2600    30.8640 ca         1 L25       0.379431
     18  C16        23.1400     3.3560    31.9370 ca         1 L25      -0.131628
     19 CL16        21.7340     2.5730    32.5720 cl         1 L25      -0.084813
     20  C15        24.3760     3.0740    32.5190 ca         1 L25      -0.030910
     21  C14        25.5380     3.6730    32.0320 ca         1 L25      -0.202630
     22  C13        25.4620     4.5660    30.9650 ca         1 L25      -0.113434
     23  C12        24.2280     4.8610    30.3870 ca         1 L25      -0.290457
     24  H1         24.8630    12.3480    29.6550 hc         1 L25       0.091373
     25  H2         23.3200    13.1840    29.8040 hc         1 L25       0.091373
     26  H3         24.3040    12.8940    31.2360 hc         1 L25       0.091373
     27  H4         22.9650    10.7060    29.5380 h1         1 L25      -0.016046
     28  H5         23.9570    10.4180    30.9690 h1         1 L25      -0.016046
     29  H6         19.2600     7.2630    32.7590 ha         1 L25       0.308839
     30  H7         17.9290    10.3430    33.9570 hn         1 L25       0.431894
     31  H8         17.8640     8.5870    33.9840 hn         1 L25       0.431894
     32  H9         22.3530     7.0200    30.6790 hn         1 L25       0.312121
     33  H10        21.1370     3.7120    30.0600 hc         1 L25       0.172404
     34  H11        21.8840     5.0360    29.2200 hc         1 L25       0.172404
     35  H15        24.4290     2.3850    33.3490 ha         1 L25       0.134533
     36  H14        26.4940     3.4490    32.4840 ha         1 L25       0.165609
     37  H13        26.3590     5.0420    30.5920 ha         1 L25       0.156627
     38  H12        24.1840     5.5760    29.5770 ha         1 L25       0.164912
@<TRIPOS>BOND
     1     1     2 1   
     2     1    24 1   
     3     1    25 1   
     4     1    26 1   
     5     2     3 1   
     6     2    27 1   
     7     2    28 1   
     8     3     4 1   
     9     4     5 ar  
    10     4    10 ar  
    11     5     6 ar  
    12     6     7 ar  
    13     6    13 1   
    14     7     8 ar  
    15     7    29 1   
    16     8     9 1   
    17     8    10 ar  
    18     9    30 1   
    19     9    31 1   
    20    10    11 1   
    21    11    12 3   
    22    13    14 1   
    23    13    32 1   
    24    14    15 2   
    25    14    16 1   
    26    16    17 1   
    27    16    33 1   
    28    16    34 1   
    29    17    18 ar  
    30    17    23 ar  
    31    18    19 1   
    32    18    20 ar  
    33    20    21 ar  
    34    20    35 1   
    35    21    22 ar  
    36    21    36 1   
    37    22    23 ar  
    38    22    37 1   
    39    23    38 1   
@<TRIPOS>SUBSTRUCTURE
     1 L25         1 TEMP              0 ****  ****    0 ROOT
