@<TRIPOS>MOLECULE
L3F
   49    52     1     0     0
SMALL
resp


@<TRIPOS>ATOM
      1 C1          11.8160    -1.9870     1.1350 c3         1 L3F      -0.319925
      2 N1          13.0890    -2.4270     0.5570 n          1 L3F      -0.087871
      3 C2          14.2590    -2.5970     1.1960 cz         1 L3F       0.592569
      4 N2          14.4700    -2.4090     2.5070 nh         1 L3F      -0.902155
      5 N3          15.2260    -2.9960     0.3600 nh         1 L3F      -0.343998
      6 C3          14.7420    -3.1090    -1.0220 c3         1 L3F      -0.331923
      7 C4          15.3910    -2.0430    -1.9330 ca         1 L3F       0.186684
      8 C5          15.9760    -2.3790    -3.1770 ca         1 L3F      -0.179712
      9 C6          16.4920    -1.3790    -4.0130 ca         1 L3F      -0.173558
     10 C7          16.3750    -0.0270    -3.6530 ca         1 L3F      -0.111426
     11 C8          15.8020     0.3580    -2.4240 cp         1 L3F       0.025961
     12 C9          15.6000     1.7920    -2.0990 cp         1 L3F       0.025173
     13 C10         15.3380     2.7310    -3.1260 ca         1 L3F      -0.137896
     14 C11         15.0420     4.0770    -2.8330 ca         1 L3F      -0.203060
     15 C12         15.0160     4.5160    -1.5000 ca         1 L3F      -0.015746
     16 C13         15.3140     3.6150    -0.4660 ca         1 L3F      -0.061221
     17 CL1         15.3090     4.1780     1.1650 cl         1 L3F      -0.094710
     18 C14         15.6020     2.2680    -0.7660 ca         1 L3F      -0.033911
     19 C15         15.3590    -0.6710    -1.5580 ca         1 L3F      -0.190919
     20 CF1         14.8190    -4.5910    -1.5370 c3         1 L3F       0.196582
     21 CF2         16.1990    -5.2610    -1.5320 c3         1 L3F       0.032543
     22 CF3         15.9160    -6.7440    -1.7750 c3         1 L3F      -0.154974
     23 CF4         14.5200    -7.0040    -1.1990 c3         1 L3F      -0.154974
     24 CF5         13.9600    -5.6350    -0.7930 c3         1 L3F       0.032543
     25 C16         13.2680    -2.7200    -0.8250 c          1 L3F       0.564894
     26 O1          12.3710    -2.6830    -1.6740 o          1 L3F      -0.447256
     27 H1          11.7130    -0.9110     1.0000 h1         1 L3F       0.165333
     28 H2          10.9700    -2.4710     0.6460 h1         1 L3F       0.165333
     29 H3          11.7670    -2.2190     2.1980 h1         1 L3F       0.165333
     30 H4          13.7670    -2.0580     3.1560 hn         1 L3F       0.465739
     31 H5          16.2090    -3.0730     0.6190 hn         1 L3F       0.379669
     32 H6          16.0310    -3.3900    -3.5470 ha         1 L3F       0.165082
     33 H7          16.9450    -1.6510    -4.9560 ha         1 L3F       0.176782
     34 H8          16.7180     0.7190    -4.3520 ha         1 L3F       0.153941
     35 H9          15.3100     2.4110    -4.1570 ha         1 L3F       0.143893
     36 H10         14.8050     4.7700    -3.6260 ha         1 L3F       0.174847
     37 H11         14.7670     5.5420    -1.2680 ha         1 L3F       0.138925
     38 H12         15.8210     1.5920     0.0440 ha         1 L3F       0.105172
     39 H13         14.9090    -0.3860    -0.6190 ha         1 L3F       0.088642
     40 HF1         14.4540    -4.6000    -2.5660 hc         1 L3F       0.054676
     41 HF2         16.8690    -4.8720    -2.2910 hc         1 L3F      -0.002885
     42 HF3         16.6840    -5.1340    -0.5620 hc         1 L3F      -0.002885
     43 HF4         15.9010    -6.9410    -2.8480 hc         1 L3F       0.072680
     44 HF5         16.6780    -7.3840    -1.3290 hc         1 L3F       0.072680
     45 HF6         13.8880    -7.4730    -1.9550 hc         1 L3F       0.072680
     46 HF7         14.5570    -7.6810    -0.3440 hc         1 L3F       0.072680
     47 HF8         14.0660    -5.5160     0.2870 hc         1 L3F      -0.002885
     48 HF9         12.8980    -5.5580    -1.0320 hc         1 L3F      -0.002885
     49 H14         15.4200    -2.4950     2.8750 hn         1 L3F       0.465739
@<TRIPOS>BOND
     1     1     2 1   
     2     1    27 1   
     3     1    28 1   
     4     1    29 1   
     5     2     3 2   
     6     2    25 1   
     7     3     4 1   
     8     3     5 1   
     9     4    30 1   
    10     4    49 1   
    11     5     6 1   
    12     5    31 1   
    13     6     7 1   
    14     6    20 1   
    15     6    25 1   
    16     7     8 ar  
    17     7    19 ar  
    18     8     9 ar  
    19     8    32 1   
    20     9    10 ar  
    21     9    33 1   
    22    10    11 ar  
    23    10    34 1   
    24    11    12 1   
    25    11    19 ar  
    26    12    13 ar  
    27    12    18 ar  
    28    13    14 ar  
    29    13    35 1   
    30    14    15 ar  
    31    14    36 1   
    32    15    16 ar  
    33    15    37 1   
    34    16    17 1   
    35    16    18 ar  
    36    18    38 1   
    37    19    39 1   
    38    20    21 1   
    39    20    24 1   
    40    20    40 1   
    41    21    22 1   
    42    21    41 1   
    43    21    42 1   
    44    22    23 1   
    45    22    43 1   
    46    22    44 1   
    47    23    24 1   
    48    23    45 1   
    49    23    46 1   
    50    24    47 1   
    51    24    48 1   
    52    25    26 2   
@<TRIPOS>SUBSTRUCTURE
     1 L3F         1 TEMP              0 ****  ****    0 ROOT
