@<TRIPOS>MOLECULE
TLA
   14    13     1     0     0
SMALL
bcc


@<TRIPOS>ATOM
      1 O1          33.4080     8.3210    -8.2420 o        391 TLA      -0.870300
      2 O11         34.8800     8.9420    -6.6800 o        391 TLA      -0.870300
      3 C1          33.6680     8.6910    -7.1080 c        391 TLA       0.914600
      4 C2          32.5880     8.8090    -6.0360 c3       391 TLA       0.019100
      5 O2          31.3050     8.5540    -6.5800 oh       391 TLA      -0.637800
      6 C3          32.6220    10.1790    -5.3490 c3       391 TLA       0.019100
      7 O3          32.4480    11.2190    -6.2980 oh       391 TLA      -0.637800
      8 C4          31.5690    10.2560    -4.2450 c        391 TLA       0.914600
      9 O4          30.7250    11.1460    -4.2180 o        391 TLA      -0.870300
     10 O41         31.6760     9.3140    -3.3340 o        391 TLA      -0.870300
     11 H2          32.8190     8.1360    -5.2110 h1       391 TLA       0.021700
     12 HO          30.6430     8.6340    -5.8890 ho       391 TLA       0.423000
     13 H3          33.5560    10.2850    -4.7960 h1       391 TLA       0.021700
     14 H1          31.5630    11.1710    -6.6670 ho       391 TLA       0.423000
@<TRIPOS>BOND
     1     1     3 1   
     2     2     3 1   
     3     3     4 1   
     4     4     5 1   
     5     4     6 1   
     6     4    11 1   
     7     5    12 1   
     8     6     7 1   
     9     6     8 1   
    10     6    13 1   
    11     7    14 1   
    12     8     9 1   
    13     8    10 1   
@<TRIPOS>SUBSTRUCTURE
     1 TLA         1 TEMP              0 ****  ****    0 ROOT
