@<TRIPOS>MOLECULE
L38
   52    53     1     0     0
SMALL
resp


@<TRIPOS>ATOM
      1  C1         24.0830    12.3870    30.2430 c3         1 L38      -0.391751
      2  C2         23.3510    11.0610    30.4630 c3         1 L38       0.423428
      3  O1         22.2130    11.3220    31.2790 os         1 L38      -0.447387
      4  C3         21.4140    10.2720    31.6980 ca         1 L38       0.853978
      5  N1         21.7580     9.0210    31.2860 nb         1 L38      -0.775166
      6  C4         20.9830     7.9920    31.6590 ca         1 L38       0.720198
      7  C5         19.8720     8.1370    32.4780 ca         1 L38      -0.786920
      8  C6         19.5220     9.4100    32.8930 ca         1 L38       0.751628
      9  N2         18.3830     9.4920    33.6850 nh         1 L38      -0.973053
     10  C7         20.2930    10.5150    32.5000 ca         1 L38      -0.658818
     11  C8         19.9660    11.8860    32.8770 cg         1 L38       0.502645
     12  N3         19.7140    12.9770    33.1710 n1         1 L38      -0.530999
     13  N4         21.4470     6.8090    31.1180 n          1 L38      -0.513776
     14  C9         20.8650     5.6100    31.0300 c          1 L38       0.696217
     15  O2         19.7380     5.3480    31.4460 o          1 L38      -0.596994
     16  C10        21.6490     4.5410    30.2810 c3         1 L38      -0.159252
     17  C11        23.0100     4.2330    30.8980 ca         1 L38      -0.021193
     18  C12        24.1210     5.0420    30.6150 ca         1 L38       0.202707
     19  O12        23.9160     6.1430    29.8020 os         1 L38      -0.179324
     20 C121        24.9740     7.0760    29.5920 c3         1 L38      -0.260855
     21  C13        25.3630     4.6930    31.1580 ca         1 L38      -0.261726
     22  C14        25.4890     3.5790    31.9950 ca         1 L38      -0.074346
     23  S14        27.1110     3.1590    32.6460 sy         1 L38       1.128633
     24 O141        28.0640     4.2090    32.2490 o          1 L38      -0.595718
     25 O142        26.9780     2.8100    34.0690 o          1 L38      -0.595718
     26 C141        27.5660     1.6310    31.7310 c3         1 L38      -0.432924
     27  C15        24.3790     2.7780    32.2960 ca         1 L38       0.180353
     28  C16        23.1420     3.1210    31.7350 ca         1 L38      -0.229202
     29  O15        24.5590     1.6920    33.1310 os         1 L38      -0.334726
     30 C151        23.5930     0.6440    33.1470 c3         1 L38      -0.078070
     31  H1         24.9670    12.2480    29.6210 hc         1 L38       0.104903
     32  H2         23.4340    13.1080    29.7450 hc         1 L38       0.104903
     33  H3         24.3990    12.8220    31.1910 hc         1 L38       0.104903
     34  H4         23.0430    10.6330    29.5060 h1         1 L38      -0.013604
     35  H5         24.0200    10.3470    30.9490 h1         1 L38      -0.013604
     36  H6         19.2770     7.2900    32.7760 ha         1 L38       0.303012
     37  H7         17.9030     8.6440    33.9740 hn         1 L38       0.433308
     38  H8         17.9980    10.3980    33.9420 hn         1 L38       0.433308
     39  H9         22.3580     6.9170    30.6990 hn         1 L38       0.249780
     40  H10        21.0630     3.6290    30.2000 hc         1 L38       0.077758
     41  H11        21.7820     4.9130    29.2700 hc         1 L38       0.077758
     42 H121        24.6150     7.8880    28.9590 h1         1 L38       0.136575
     43 H122        25.3130     7.5220    30.5280 h1         1 L38       0.136575
     44 H123        25.8230     6.6180    29.0820 h1         1 L38       0.136575
     45  H13        26.2400     5.2810    30.9370 ha         1 L38       0.184215
     46 H141        27.5800     1.8410    30.6640 h1         1 L38       0.155706
     47 H142        28.5480     1.2980    32.0580 h1         1 L38       0.155706
     48 H143        26.8260     0.8610    31.9420 h1         1 L38       0.155706
     49  H16        22.2720     2.5150    31.9350 ha         1 L38       0.198746
     50 H151        23.4750     0.1970    32.1620 h1         1 L38       0.105301
     51 H152        22.6190     0.9690    33.5090 h1         1 L38       0.105301
     52 H153        23.9360    -0.1430    33.8180 h1         1 L38       0.105301
@<TRIPOS>BOND
     1     1     2 1   
     2     1    31 1   
     3     1    32 1   
     4     1    33 1   
     5     2     3 1   
     6     2    34 1   
     7     2    35 1   
     8     3     4 1   
     9     4     5 ar  
    10     4    10 ar  
    11     5     6 ar  
    12     6     7 ar  
    13     6    13 1   
    14     7     8 ar  
    15     7    36 1   
    16     8     9 1   
    17     8    10 ar  
    18     9    37 1   
    19     9    38 1   
    20    10    11 1   
    21    11    12 3   
    22    13    14 1   
    23    13    39 1   
    24    14    15 2   
    25    14    16 1   
    26    16    17 1   
    27    16    40 1   
    28    16    41 1   
    29    17    18 ar  
    30    17    28 ar  
    31    18    19 1   
    32    18    21 ar  
    33    19    20 1   
    34    20    42 1   
    35    20    43 1   
    36    20    44 1   
    37    21    22 ar  
    38    21    45 1   
    39    22    23 1   
    40    22    27 ar  
    41    23    24 2   
    42    23    25 2   
    43    23    26 1   
    44    26    46 1   
    45    26    47 1   
    46    26    48 1   
    47    27    28 ar  
    48    27    29 1   
    49    28    49 1   
    50    29    30 1   
    51    30    50 1   
    52    30    51 1   
    53    30    52 1   
@<TRIPOS>SUBSTRUCTURE
     1 L38         1 TEMP              0 ****  ****    0 ROOT
