@<TRIPOS>MOLECULE
L4K
   45    48     1     0     0
SMALL
resp


@<TRIPOS>ATOM
      1 C1          11.7090    -2.3260     1.2760 c3         1 L4K      -0.247583
      2 N1          13.0270    -2.6680     0.7260 n          1 L4K      -0.141541
      3 C2          14.2000    -2.6360     1.3740 cz         1 L4K       0.732663
      4 N2          14.3830    -2.3570     2.6670 nh         1 L4K      -0.960039
      5 N3          15.2170    -2.9290     0.5650 nh         1 L4K      -0.458793
      6 C3          14.7840    -3.2710    -0.7920 c3         1 L4K      -0.338337
      7 CO1         15.1330    -4.7530    -1.0670 ca         1 L4K       0.094138
      8 CO2         14.2840    -5.6420    -1.7690 ca         1 L4K      -0.143725
      9 CO3         14.6390    -6.9940    -1.9470 ca         1 L4K      -0.155852
     10 CO4         15.8630    -7.4750    -1.4530 ca         1 L4K      -0.078989
     11 CO5         16.7340    -6.6010    -0.7900 ca         1 L4K      -0.155852
     12 CO6         16.3580    -5.2630    -0.5890 ca         1 L4K      -0.143725
     13 C4          15.3570    -2.2700    -1.8110 ca         1 L4K       0.322252
     14 C5          15.9120    -2.6870    -3.0440 ca         1 L4K      -0.258150
     15 C6          16.3920    -1.7310    -3.9570 ca         1 L4K      -0.143437
     16 C7          16.3150    -0.3580    -3.6590 ca         1 L4K      -0.107547
     17 C8          15.7900     0.0950    -2.4310 cp         1 L4K      -0.071520
     18 C9          15.7050     1.5400    -2.1090 cp         1 L4K       0.524592
     19 C14         15.6970     1.9910    -0.7750 ca         1 L4K      -0.614217
     20 C13         15.5590     3.3570    -0.4900 ca         1 L4K       0.492284
     21 N12         15.4370     4.2920    -1.4440 nb         1 L4K      -0.676941
     22 C11         15.4670     3.8810    -2.7240 ca         1 L4K       0.492284
     23 C10         15.5980     2.5330    -3.1040 ca         1 L4K      -0.614217
     24 C15         15.3230    -0.8820    -1.5210 ca         1 L4K      -0.236445
     25 C16         13.2650    -3.0330    -0.6330 c          1 L4K       0.617879
     26 O1          12.3820    -3.0980    -1.4960 o          1 L4K      -0.447984
     27 H1          11.5210    -1.2620     1.1330 h1         1 L4K       0.145771
     28 H2          10.9140    -2.8800     0.7770 h1         1 L4K       0.145771
     29 H3          11.6580    -2.5490     2.3410 h1         1 L4K       0.145771
     30 H4          15.3300    -2.3610     3.0510 hn         1 L4K       0.478012
     31 H5          16.1980    -2.9240     0.8440 hn         1 L4K       0.398423
     32 HO2         13.3390    -5.3140    -2.1640 ha         1 L4K       0.149692
     33 HO3         13.9700    -7.6690    -2.4610 ha         1 L4K       0.163346
     34 HO4         16.1380    -8.5090    -1.5610 ha         1 L4K       0.151542
     35 HO5         17.6820    -6.9560    -0.4100 ha         1 L4K       0.163346
     36 HO6         17.0250    -4.6270    -0.0350 ha         1 L4K       0.149692
     37 H6          15.9760    -3.7330    -3.3120 ha         1 L4K       0.204135
     38 H7          16.8180    -2.0430    -4.9000 ha         1 L4K       0.171592
     39 H8          16.6700     0.3520    -4.3890 ha         1 L4K       0.159471
     40 H12         15.8060     1.3010     0.0420 ha         1 L4K       0.204274
     41 H           15.5470     3.7060     0.5320 h4         1 L4K       0.047839
     42 H10         15.3630     4.6610    -3.4620 h4         1 L4K       0.047839
     43 H9          15.5840     2.2730    -4.1520 ha         1 L4K       0.204274
     44 H13         14.8940    -0.5490    -0.5890 ha         1 L4K       0.110000
     45 H14         13.6450    -2.0630     3.3050 hn         1 L4K       0.478012
@<TRIPOS>BOND
     1     1     2 1   
     2     1    27 1   
     3     1    28 1   
     4     1    29 1   
     5     2     3 2   
     6     2    25 1   
     7     3     4 1   
     8     3     5 1   
     9     4    30 1   
    10     4    45 1   
    11     5     6 1   
    12     5    31 1   
    13     6     7 1   
    14     6    13 1   
    15     6    25 1   
    16     7     8 ar  
    17     7    12 ar  
    18     8     9 ar  
    19     8    32 1   
    20     9    10 ar  
    21     9    33 1   
    22    10    11 ar  
    23    10    34 1   
    24    11    12 ar  
    25    11    35 1   
    26    12    36 1   
    27    13    14 ar  
    28    13    24 ar  
    29    14    15 ar  
    30    14    37 1   
    31    15    16 ar  
    32    15    38 1   
    33    16    17 ar  
    34    16    39 1   
    35    17    18 1   
    36    17    24 ar  
    37    18    19 ar  
    38    18    23 ar  
    39    19    20 ar  
    40    19    40 1   
    41    20    21 ar  
    42    20    41 1   
    43    21    22 ar  
    44    22    23 ar  
    45    22    42 1   
    46    23    43 1   
    47    24    44 1   
    48    25    26 2   
@<TRIPOS>SUBSTRUCTURE
     1 L4K         1 TEMP              0 ****  ****    0 ROOT
