@<TRIPOS>MOLECULE
L63
   43    45     1     0     0
SMALL
resp


@<TRIPOS>ATOM
      1 O1           3.8900   -49.9130     7.2590 o          1 L63      -0.740478
      2 C1           3.1470   -49.0460     6.7410 c          1 L63       0.800168
      3 O2           3.5650   -47.8960     6.4880 o          1 L63      -0.740478
      4 C2           1.7210   -49.3610     6.4390 cc         1 L63       0.028079
      5 S1           1.1470   -50.8840     7.0570 ss         1 L63      -0.117256
      6 C3          -0.4830   -50.5330     6.5320 ca         1 L63      -0.111200
      7 C4          -1.6410   -51.2950     6.7760 ca         1 L63      -0.075258
      8 C5          -2.8820   -50.8190     6.3190 ca         1 L63      -0.033901
      9 C6          -2.9590   -49.6440     5.5580 ca         1 L63      -0.083873
     10 C7          -1.7950   -48.9050     5.3020 ca         1 L63      -0.311001
     11 C8          -0.5280   -49.2970     5.8100 ca         1 L63       0.287975
     12 C9           0.7540   -48.6240     5.7720 cd         1 L63      -0.253692
     13 C10          0.9560   -47.2720     5.1260 c3         1 L63       0.116747
     14 C11          0.9940   -46.0840     6.1170 c3         1 L63      -0.080440
     15 C12         -0.1950   -46.0030     7.0810 c3         1 L63      -0.048247
     16 O3          -1.3620   -45.5680     6.3920 os         1 L63      -0.365369
     17 C13         -2.5510   -45.5270     7.0930 ca         1 L63       0.535249
     18 C16         -2.7550   -46.1610     8.3470 ca         1 L63      -0.584030
     19 C15         -4.0190   -46.1290     8.9720 ca         1 L63       0.383499
     20 CC1         -4.2210   -46.8880    10.2710 c3         1 L63      -0.247323
     21 C14         -5.0920   -45.4250     8.3760 ca         1 L63      -0.288469
     22 CL1         -6.6500   -45.3840     9.1390 cl         1 L63      -0.127652
     23 C17         -4.8820   -44.7660     7.1410 ca         1 L63       0.383499
     24 CH1         -6.0120   -43.9980     6.4840 c3         1 L63      -0.247323
     25 C18         -3.6220   -44.8330     6.5030 ca         1 L63      -0.584030
     26 CL3         -4.3390   -51.6470     6.7120 cl         1 L63      -0.173453
     27 H1          -1.5800   -52.2140     7.3490 ha         1 L63       0.164770
     28 H3          -3.9190   -49.3010     5.2020 ha         1 L63       0.127611
     29 H4          -1.8830   -47.9910     4.7440 ha         1 L63       0.193908
     30 H5           0.1640   -47.0920     4.3960 hc         1 L63       0.002220
     31 H6           1.8700   -47.2670     4.5290 hc         1 L63       0.002220
     32 H7           1.0870   -45.1510     5.5650 hc         1 L63       0.061849
     33 H8           1.8920   -46.1450     6.7290 hc         1 L63       0.061849
     34 H9           0.0120   -45.2870     7.8790 h1         1 L63       0.097848
     35 H10         -0.3310   -46.9790     7.5510 h1         1 L63       0.097848
     36 H11         -1.9640   -46.7100     8.8410 ha         1 L63       0.211541
     37 HC1         -4.7410   -46.2780    11.0120 hc         1 L63       0.074175
     38 HC2         -4.8110   -47.7890    10.0840 hc         1 L63       0.074175
     39 HC3         -3.2640   -47.1870    10.7060 hc         1 L63       0.074175
     40 HH1         -5.6800   -43.4840     5.5790 hc         1 L63       0.074175
     41 HH2         -6.8220   -44.6780     6.2120 hc         1 L63       0.074175
     42 HH3         -6.4110   -43.2480     7.1690 hc         1 L63       0.074175
     43 H19         -3.4710   -44.3450     5.5470 ha         1 L63       0.211541
@<TRIPOS>BOND
     1     1     2 1   
     2     2     3 1   
     3     2     4 1   
     4     4     5 1   
     5     4    12 2   
     6     5     6 1   
     7     6     7 ar  
     8     6    11 ar  
     9     7     8 ar  
    10     7    27 1   
    11     8     9 ar  
    12     8    26 1   
    13     9    10 ar  
    14     9    28 1   
    15    10    11 ar  
    16    10    29 1   
    17    11    12 1   
    18    12    13 1   
    19    13    14 1   
    20    13    30 1   
    21    13    31 1   
    22    14    15 1   
    23    14    32 1   
    24    14    33 1   
    25    15    16 1   
    26    15    34 1   
    27    15    35 1   
    28    16    17 1   
    29    17    18 ar  
    30    17    25 ar  
    31    18    19 ar  
    32    18    36 1   
    33    19    20 1   
    34    19    21 ar  
    35    20    37 1   
    36    20    38 1   
    37    20    39 1   
    38    21    22 1   
    39    21    23 ar  
    40    23    24 1   
    41    23    25 ar  
    42    24    40 1   
    43    24    41 1   
    44    24    42 1   
    45    25    43 1   
@<TRIPOS>SUBSTRUCTURE
     1 L63         1 TEMP              0 ****  ****    0 ROOT
