@<TRIPOS>MOLECULE
2F
   46    49     1     0     0
SMALL
resp


@<TRIPOS>ATOM
      1 C1          31.6240    38.9530    26.1540 c3         1 2F      -0.342440
      2 C2          31.0950    38.3550    27.4680 c3         1 2F       0.262382
      3 C3          33.0540    38.9790    28.6540 c3         1 2F       0.262382
      4 C4          33.6810    39.6140    27.4030 c3         1 2F      -0.342440
      5 C5          38.2630    36.7140    17.0130 ca         1 2F       0.438217
      6 O1          31.6350    39.0630    28.5780 os         1 2F      -0.458838
      7 C6          34.5450    34.9770    21.1830 c          1 2F       0.612392
      8 C7          37.5970    36.1890    18.1370 ca         1 2F      -0.454647
      9 C8          34.0440    38.9760    23.7380 ca         1 2F       1.157917
     10 C9          33.1560    38.9290    26.1330 c3         1 2F       0.602176
     11 C10         34.8030    37.8110    21.4410 ca         1 2F      -0.342331
     12 C11         35.2540    37.1250    20.2340 cc         1 2F      -0.294213
     13 C12         37.6230    36.7430    15.7590 ca         1 2F      -0.359002
     14 C13         36.3270    36.2160    15.6230 ca         1 2F      -0.064237
     15 C14         35.6720    35.6680    16.7400 ca         1 2F      -0.361918
     16 C15         34.3070    37.0370    22.5110 ca         1 2F       0.453317
     17 C16         34.8520    39.2090    21.6170 ca         1 2F       0.429163
     18 C17         35.1650    35.7820    20.1250 cd         1 2F       0.165923
     19 C18         36.2930    35.6640    18.0030 ca         1 2F       0.501371
     20 C19         33.6690    34.8320    23.4620 c3         1 2F      -0.223321
     21 O2          35.6500    35.0620    19.0540 os         1 2F      -0.394876
     22 N1          34.4790    39.7920    22.7770 nb         1 2F      -0.847736
     23 O3          34.3290    33.7760    21.0230 o          1 2F      -0.555362
     24 N2          34.2120    35.6180    22.3420 n          1 2F      -0.137956
     25 N3          33.9310    37.6500    23.6560 nb         1 2F      -0.689953
     26 N4          33.6720    39.5650    24.9270 nh         1 2F      -1.005393
     27 F51         39.4940    37.2110    17.1410 f          1 2F      -0.220041
     28 H50         38.0820    36.1950    19.1020 ha         1 2F       0.225509
     29 H1          31.2200    38.4000    25.3050 hc         1 2F       0.105549
     30 H2          31.2770    39.9810    26.0540 hc         1 2F       0.105549
     31 H3          30.0100    38.4340    27.5070 h1         1 2F       0.005923
     32 H4          31.3430    37.2950    27.5440 h1         1 2F       0.005923
     33 H5          33.3650    37.9380    28.7610 h1         1 2F       0.005923
     34 H6          33.3890    39.5050    29.5480 h1         1 2F       0.005923
     35 H7          33.4270    40.6740    27.3920 hc         1 2F       0.105549
     36 H8          34.7680    39.5450    27.4510 hc         1 2F       0.105549
     37 H10         33.4880    37.8910    26.1540 h1         1 2F      -0.040880
     38 H11         35.7030    37.7360    19.4670 ha         1 2F       0.182688
     39 H12         35.8370    36.2250    14.6600 ha         1 2F       0.159798
     40 H13         34.6920    35.2300    16.6230 ha         1 2F       0.195797
     41 H14         35.2180    39.8560    20.8360 h4         1 2F       0.102393
     42 H15         34.0540    35.1880    24.4180 h1         1 2F       0.111684
     43 H16         32.5820    34.9190    23.4830 h1         1 2F       0.111684
     44 H17         33.9200    33.7710    23.4230 h1         1 2F       0.111684
     45 H18         33.7900    40.5680    24.9710 hn         1 2F       0.407652
     46 H52         38.1200    37.1730    14.9030 ha         1 2F       0.195567
@<TRIPOS>BOND
     1     1     2 1   
     2     1    10 1   
     3     1    29 1   
     4     1    30 1   
     5     2     6 1   
     6     2    31 1   
     7     2    32 1   
     8     3     4 1   
     9     3     6 1   
    10     3    33 1   
    11     3    34 1   
    12     4    10 1   
    13     4    35 1   
    14     4    36 1   
    15     5     8 ar  
    16     5    13 ar  
    17     5    27 1   
    18     7    18 1   
    19     7    23 2   
    20     7    24 1   
    21     8    19 ar  
    22     8    28 1   
    23     9    22 ar  
    24     9    25 ar  
    25     9    26 1   
    26    10    26 1   
    27    10    37 1   
    28    11    12 1   
    29    11    16 ar  
    30    11    17 ar  
    31    12    18 2   
    32    12    38 1   
    33    13    14 ar  
    34    13    46 1   
    35    14    15 ar  
    36    14    39 1   
    37    15    19 ar  
    38    15    40 1   
    39    16    24 1   
    40    16    25 ar  
    41    17    22 ar  
    42    17    41 1   
    43    18    21 1   
    44    19    21 1   
    45    20    24 1   
    46    20    42 1   
    47    20    43 1   
    48    20    44 1   
    49    26    45 1   
@<TRIPOS>SUBSTRUCTURE
     1 2F         1 TEMP              0 ****  ****    0 ROOT
