@<TRIPOS>MOLECULE
L48
   42    45     1     0     0
SMALL
resp


@<TRIPOS>ATOM
      1 O1           3.5960   -50.2380     7.2860 o          1 L48      -0.795902
      2 C1           2.9920   -49.1830     6.9790 c          1 L48       0.875781
      3 O2           3.5470   -48.0560     6.9860 o          1 L48      -0.795902
      4 C2           1.5670   -49.2810     6.6030 cc         1 L48       0.035641
      5 C3          -0.3490   -50.4960     6.2930 ca         1 L48       0.366057
      6 C4          -1.3480   -51.4870     6.2010 ca         1 L48      -0.391117
      7 C5          -2.6510   -51.1170     5.7980 ca         1 L48      -0.109465
      8 C6          -2.9320   -49.7710     5.4890 ca         1 L48      -0.265879
      9 C7          -1.9220   -48.7930     5.5780 ca         1 L48      -0.167363
     10 C8          -0.6060   -49.1300     5.9780 ca         1 L48      -0.000304
     11 C9           0.6130   -48.3830     6.1730 cd         1 L48      -0.165724
     12 C10          0.8070   -46.9170     5.9620 c3         1 L48       0.070953
     13 C11          0.7030   -46.1230     7.2810 c3         1 L48      -0.040566
     14 C12         -0.7220   -46.0880     7.8570 c3         1 L48      -0.043488
     15 O3          -1.5390   -45.3740     6.9380 os         1 L48      -0.342431
     16 C13         -2.8810   -45.1820     7.1990 ca         1 L48       0.185104
     17 C14         -5.6350   -44.5520     7.4220 ca         1 L48      -0.349061
     18 C17         -4.8880   -44.0530     6.3460 ca         1 L48      -0.138124
     19 C18         -3.5270   -44.3680     6.2430 ca         1 L48      -0.279757
     20 H1          -1.1220   -52.5130     6.4410 ha         1 L48       0.176973
     21 H2          -3.4290   -51.8680     5.7410 ha         1 L48       0.117384
     22 H3          -3.9390   -49.4940     5.1920 ha         1 L48       0.129755
     23 H4          -2.1650   -47.7640     5.3410 ha         1 L48       0.161386
     24 H5           0.0810   -46.5360     5.2440 hc         1 L48       0.002087
     25 H6           1.7760   -46.7460     5.5010 hc         1 L48       0.002087
     26 H7           1.0480   -45.1060     7.1030 hc         1 L48       0.052198
     27 H8           1.3930   -46.5500     8.0100 hc         1 L48       0.052198
     28 H9          -0.7250   -45.5870     8.8270 h1         1 L48       0.085492
     29 H10         -1.0850   -47.1040     7.9920 h1         1 L48       0.085492
     30 H19         -2.9490   -43.9740     5.4120 ha         1 L48       0.164012
     31 H22         -5.3620   -43.4240     5.5990 ha         1 L48       0.143709
     32 H13         -6.6820   -44.3170     7.5190 ha         1 L48       0.168013
     33 N1           0.9810   -50.5350     6.6700 na         1 L48      -0.556691
     34 CQ1         -4.5300   -46.7430    10.1160 cc         1 L48      -0.106754
     35 NQ1         -5.5190   -46.0060     9.4890 na         1 L48      -0.401337
     36 C15         -5.0110   -45.3810     8.3740 ca         1 L48       0.192116
     37 C16         -3.6230   -45.7300     8.3010 ca         1 L48       0.124009
     38 CQ2         -3.3550   -46.5900     9.4310 cd         1 L48      -0.385836
     39 H            1.5290   -51.3280     6.9750 hn         1 L48       0.380970
     40 HQ1         -6.4800   -45.9640     9.8180 hn         1 L48       0.348779
     41 HQ2         -2.4130   -47.0460     9.7000 ha         1 L48       0.239198
     42 HQ3         -4.7510   -47.3120    11.0080 h4         1 L48       0.176309
@<TRIPOS>BOND
     1     1     2 1   
     2     2     3 1   
     3     2     4 1   
     4     4    11 2   
     5     4    33 1   
     6     5     6 ar  
     7     5    10 ar  
     8     5    33 1   
     9     6     7 ar  
    10     6    20 1   
    11     7     8 ar  
    12     7    21 1   
    13     8     9 ar  
    14     8    22 1   
    15     9    10 ar  
    16     9    23 1   
    17    10    11 1   
    18    11    12 1   
    19    12    13 1   
    20    12    24 1   
    21    12    25 1   
    22    13    14 1   
    23    13    26 1   
    24    13    27 1   
    25    14    15 1   
    26    14    28 1   
    27    14    29 1   
    28    15    16 1   
    29    16    19 ar  
    30    16    37 ar  
    31    17    18 ar  
    32    17    32 1   
    33    17    36 ar  
    34    18    19 ar  
    35    18    31 1   
    36    19    30 1   
    37    33    39 1   
    38    34    35 1   
    39    34    38 2   
    40    34    42 1   
    41    35    36 1   
    42    35    40 1   
    43    36    37 ar  
    44    37    38 1   
    45    38    41 1   
@<TRIPOS>SUBSTRUCTURE
     1 L48         1 TEMP              0 ****  ****    0 ROOT
