@<TRIPOS>MOLECULE
TPO
   17    16     1     0     0
SMALL
No Charge or Current Charge


@<TRIPOS>ATOM
      1 N            3.5400     1.4200     0.0000 N          1 TPO      -0.634886
      2 H            2.5860     1.4700    -0.4450 H          1 TPO       0.323679
      3 CA           3.8470     0.1250     0.5900 CX         1 TPO      -0.132239
      4 CB           2.5890    -0.7640     0.4580 CT         1 TPO       0.650078
      5 CG2          2.7430    -2.0840     1.2110 CT         1 TPO      -0.370896
      6 HG21         1.8190    -2.6390     1.0940 HC         1 TPO       0.045797
      7 HG22         3.5690    -2.6840     0.8400 HC         1 TPO       0.045797
      8 HG23         2.8890    -1.8950     2.2730 HC         1 TPO       0.045797
      9 OG1          1.5220    -0.0710     0.9920 OS         1 TPO      -0.631846
     10 P            0.2870     0.4940    -0.0870 P          1 TPO       1.341529
     11 O1P         -0.6970     1.1120     0.8490 O2         1 TPO      -0.938479
     12 O2P          1.0920     1.4950    -0.9330 O2         1 TPO      -0.938479
     13 O3P         -0.1170    -0.7350    -0.8410 O2         1 TPO      -0.938479
     14 HB           2.4330    -0.9840    -0.5910 H1         1 TPO      -0.032505
     15 HA           4.0610     0.2670     1.6460 H1         1 TPO       0.050080
     16 C            5.1100    -0.4550    -0.0600 C          1 TPO       0.756040
     17 O            5.1320    -1.3860    -0.8260 O          1 TPO      -0.640988
@<TRIPOS>BOND
     1     2     1 1   
     2     3     1 1   
     3     4     3 1   
     4     5     4 1   
     5     6     5 1   
     6     7     5 1   
     7     8     5 1   
     8     9     4 1   
     9    10     9 1   
    10    11    10 1   
    11    12    10 1   
    12    13    10 1   
    13    14     4 1   
    14    15     3 1   
    15    16     3 1   
    16    17    16 1   
@<TRIPOS>SUBSTRUCTURE
     1 TPO         1 TEMP              0 ****  ****    0 ROOT
