@<TRIPOS>MOLECULE
L67
   43    45     1     0     0
SMALL
resp


@<TRIPOS>ATOM
      1 O1           3.5640   -47.8280     6.1890 o          1 L67      -0.762550
      2 C1           3.0360   -48.8080     6.7430 c          1 L67       0.787246
      3 O2           3.6700   -49.4560     7.6250 o          1 L67      -0.762550
      4 C2           1.6420   -49.1600     6.4070 cc         1 L67       0.225302
      5 C3          -0.1840   -50.4270     6.5470 ca         1 L67       0.397719
      6 C4          -1.0940   -51.4430     6.8740 ca         1 L67      -0.358176
      7 C5          -2.3940   -51.3660     6.3650 ca         1 L67      -0.120524
      8 C6          -2.7690   -50.2870     5.5290 ca         1 L67      -0.268136
      9 C7          -1.8170   -49.2860     5.2060 ca         1 L67      -0.178611
     10 C8          -0.4970   -49.3370     5.7160 ca         1 L67       0.053005
     11 C9           0.6830   -48.5260     5.6410 cd         1 L67      -0.298545
     12 C10          0.8060   -47.2140     4.9080 c3         1 L67       0.078488
     13 C11          0.8090   -45.9820     5.8370 c3         1 L67      -0.049907
     14 C12         -0.4320   -45.8570     6.7330 c3         1 L67      -0.045255
     15 O3          -1.5670   -45.5510     5.9370 os         1 L67      -0.363799
     16 C13         -2.8020   -45.4950     6.5530 ca         1 L67       0.555602
     17 C16         -3.0330   -45.8040     7.9120 ca         1 L67      -0.596452
     18 C15         -4.3370   -45.7630     8.4550 ca         1 L67       0.391410
     19 CC1         -4.5590   -46.1410     9.9070 c3         1 L67      -0.257348
     20 C14         -5.4290   -45.3910     7.6290 ca         1 L67      -0.296521
     21 CL1         -7.0380   -45.3590     8.2750 cl         1 L67      -0.129955
     22 C17         -5.2060   -45.0560     6.2740 ca         1 L67       0.391410
     23 CH1         -6.3500   -44.6520     5.3650 c3         1 L67      -0.257348
     24 C18         -3.8960   -45.1150     5.7490 ca         1 L67      -0.596452
     25 H1          -0.7930   -52.2670     7.5080 ha         1 L67       0.186215
     26 H2          -3.1320   -52.1280     6.6070 ha         1 L67       0.128108
     27 H3          -3.7690   -50.2250     5.1380 ha         1 L67       0.144507
     28 H4          -2.1040   -48.4660     4.5640 ha         1 L67       0.167123
     29 H5          -0.0270   -47.1390     4.2090 hc         1 L67       0.014495
     30 H6           1.7050   -47.1980     4.3030 hc         1 L67       0.014495
     31 H7           0.9170   -45.0840     5.2420 hc         1 L67       0.049721
     32 H8           1.6920   -46.0260     6.4710 hc         1 L67       0.049721
     33 H9          -0.2790   -45.0500     7.4540 h1         1 L67       0.095677
     34 H10         -0.5700   -46.7820     7.2960 h1         1 L67       0.095677
     35 H11         -2.2270   -46.0940     8.5690 ha         1 L67       0.214237
     36 HC1         -5.1510   -45.3840    10.4240 hc         1 L67       0.076262
     37 HC2         -5.0940   -47.0890     9.9690 hc         1 L67       0.076262
     38 HC3         -3.6170   -46.2590    10.4260 hc         1 L67       0.076262
     39 HH1         -5.9980   -44.3900     4.3730 hc         1 L67       0.076262
     40 HH2         -7.0610   -45.4710     5.2670 hc         1 L67       0.076262
     41 HH3         -6.8730   -43.7880     5.7750 hc         1 L67       0.076262
     42 H19         -3.7240   -44.8700     4.7150 ha         1 L67       0.214237
     43 O4           1.1310   -50.3170     6.9580 os         1 L67      -0.369834
@<TRIPOS>BOND
     1     1     2 1   
     2     2     3 1   
     3     2     4 1   
     4     4    11 2   
     5     4    43 1   
     6     5     6 ar  
     7     5    10 ar  
     8     5    43 1   
     9     6     7 ar  
    10     6    25 1   
    11     7     8 ar  
    12     7    26 1   
    13     8     9 ar  
    14     8    27 1   
    15     9    10 ar  
    16     9    28 1   
    17    10    11 1   
    18    11    12 1   
    19    12    13 1   
    20    12    29 1   
    21    12    30 1   
    22    13    14 1   
    23    13    31 1   
    24    13    32 1   
    25    14    15 1   
    26    14    33 1   
    27    14    34 1   
    28    15    16 1   
    29    16    17 ar  
    30    16    24 ar  
    31    17    18 ar  
    32    17    35 1   
    33    18    19 1   
    34    18    20 ar  
    35    19    36 1   
    36    19    37 1   
    37    19    38 1   
    38    20    21 1   
    39    20    22 ar  
    40    22    23 1   
    41    22    24 ar  
    42    23    39 1   
    43    23    40 1   
    44    23    41 1   
    45    24    42 1   
@<TRIPOS>SUBSTRUCTURE
     1 L67         1 TEMP              0 ****  ****    0 ROOT
