@<TRIPOS>MOLECULE
3FW
   49    51     1     0     0
SMALL
resp


@<TRIPOS>ATOM
      1 C5           38.330     36.670     17.050 ca         1 3FW      -0.505409
      2 C12          37.660     36.620     15.820 ca         1 3FW       0.459859
      3 CY3          33.520     39.430     27.330 c3         1 3FW      -0.308572
      4 CY4          34.900     38.790     27.560 c3         1 3FW       0.495930
      5 CY2          31.410     39.410     25.900 c3         1 3FW      -0.308572
      6 C19          33.460     34.810     23.390 c3         1 3FW      -0.319069
      7 F1           38.370     36.220     19.400 f          1 3FW      -0.185559
      8 C7           37.740     36.130     18.210 ca         1 3FW       0.374782
      9 F2           38.210     37.190     14.720 f          1 3FW      -0.211420
     10 C13          36.410     35.980     15.730 ca         1 3FW      -0.406752
     11 C14          35.820     35.420     16.880 ca         1 3FW      -0.144752
     12 C18          36.470     35.510     18.120 ca         1 3FW       0.158528
     13 O2           35.880     34.930     19.220 os         1 3FW      -0.327541
     14 C17          35.320     35.680     20.230 cc         1 3FW       0.090762
     15 C11          35.410     37.030     20.310 cd         1 3FW      -0.201962
     16 C10          34.890     37.740     21.470 ca         1 3FW      -0.454673
     17 C16          35.010     39.140     21.640 ca         1 3FW       0.521620
     18 N1           34.600     39.750     22.770 nb         1 3FW      -0.893397
     19 C6           34.620     34.910     21.260 c          1 3FW       0.688438
     20 O3           34.460     33.690     21.160 o          1 3FW      -0.560685
     21 N2           34.140     35.590     22.340 n          1 3FW      -0.260439
     22 C15          34.280     37.010     22.510 ca         1 3FW       0.600938
     23 N3           33.870     37.650     23.620 nb         1 3FW      -0.773404
     24 C8           34.060     38.970     23.710 ca         1 3FW       1.103846
     25 N4           33.640     39.590     24.870 nh         1 3FW      -0.787255
     26 CY5          32.900     39.010     25.980 c3         1 3FW       0.427468
     27 CY1          30.680     38.880     24.650 c3         1 3FW       0.495930
     28 OY1          30.680     37.470     24.630 oh         1 3FW      -0.721725
     29 OY2          35.420     39.180     28.810 oh         1 3FW      -0.721725
     30 H9           39.290     37.160     17.120 ha         1 3FW       0.246713
     31 HY6          32.860     39.120     28.140 hc         1 3FW       0.069735
     32 HY7          33.590     40.520     27.390 hc         1 3FW       0.069735
     33 HY8          34.810     37.710     27.530 h1         1 3FW      -0.054541
     34 HY9          35.600     39.080     26.780 h1         1 3FW      -0.054541
     35 HY10         30.890     39.060     26.790 hc         1 3FW       0.069735
     36 HY11         31.340     40.500     25.910 hc         1 3FW       0.069735
     37 H15          32.990     35.410     24.170 h1         1 3FW       0.160667
     38 H16          32.670     34.190     22.970 h1         1 3FW       0.160667
     39 H17          34.170     34.140     23.890 h1         1 3FW       0.160667
     40 H12          35.900     35.930     14.780 ha         1 3FW       0.219937
     41 H13          34.870     34.920     16.800 ha         1 3FW       0.197727
     42 H11          35.920     37.610     19.570 ha         1 3FW       0.159713
     43 H14          35.470     39.760     20.890 h4         1 3FW       0.086964
     44 H18          33.840     40.580     24.930 hn         1 3FW       0.382717
     45 HY1          32.950     37.930     25.940 h1         1 3FW      -0.020437
     46 HY2          29.650     39.230     24.650 h1         1 3FW      -0.054541
     47 HY3          31.140     39.260     23.740 h1         1 3FW      -0.054541
     48 HY4          31.570     37.170     24.540 ho         1 3FW       0.429349
     49 HY5          35.560     40.110     28.800 ho         1 3FW       0.429349
@<TRIPOS>BOND
     1     1     2 ar  
     2     1     8 ar  
     3     1    30 1   
     4     2     9 1   
     5     2    10 ar  
     6     3     4 1   
     7     3    26 1   
     8     3    31 1   
     9     3    32 1   
    10     4    29 1   
    11     4    33 1   
    12     4    34 1   
    13     5    26 1   
    14     5    27 1   
    15     5    35 1   
    16     5    36 1   
    17     6    21 1   
    18     6    37 1   
    19     6    38 1   
    20     6    39 1   
    21     7     8 1   
    22     8    12 ar  
    23    10    11 ar  
    24    10    40 1   
    25    11    12 ar  
    26    11    41 1   
    27    12    13 1   
    28    13    14 1   
    29    14    15 2   
    30    14    19 1   
    31    15    16 1   
    32    15    42 1   
    33    16    17 ar  
    34    16    22 ar  
    35    17    18 ar  
    36    17    43 1   
    37    18    24 ar  
    38    19    20 2   
    39    19    21 1   
    40    21    22 1   
    41    22    23 ar  
    42    23    24 ar  
    43    24    25 1   
    44    25    26 1   
    45    25    44 1   
    46    26    45 1   
    47    27    28 1   
    48    27    46 1   
    49    27    47 1   
    50    28    48 1   
    51    29    49 1   
@<TRIPOS>SUBSTRUCTURE
     1 3FW         1 TEMP              0 ****  ****    0 ROOT
