@<TRIPOS>MOLECULE
L42
   44    47     1     0     0
SMALL
resp


@<TRIPOS>ATOM
      1 O1           3.6010   -50.1310     7.2170 o          1 L42      -0.795733
      2 C1           2.9800   -49.0940     6.8830 c          1 L42       0.873218
      3 O2           3.5580   -47.9830     6.8120 o          1 L42      -0.795733
      4 C2           1.5370   -49.2030     6.5540 cc         1 L42       0.051369
      5 C3          -0.3470   -50.4580     6.2990 ca         1 L42       0.373325
      6 C4          -1.3180   -51.4750     6.2330 ca         1 L42      -0.380796
      7 C5          -2.6290   -51.1470     5.8280 ca         1 L42      -0.113517
      8 C6          -2.9450   -49.8150     5.4840 ca         1 L42      -0.271163
      9 C7          -1.9620   -48.8110     5.5560 ca         1 L42      -0.169155
     10 C8          -0.6360   -49.1070     5.9640 ca         1 L42       0.012490
     11 C9           0.5550   -48.3240     6.1540 cd         1 L42      -0.192494
     12 C10          0.6830   -46.8450     5.9560 c3         1 L42       0.101998
     13 C11          0.6910   -46.0460     7.2730 c3         1 L42      -0.000355
     14 C12         -0.5530   -46.2450     8.1390 c3         1 L42      -0.182637
     15 O3          -1.6890   -45.7640     7.4380 os         1 L42      -0.245521
     16 C13         -2.9370   -45.9350     8.0040 ca         1 L42       0.226305
     17 C14         -5.5640   -46.2440     9.0370 ca         1 L42      -0.399829
     18 C15         -4.4530   -46.6110     9.8140 ca         1 L42      -0.086750
     19 C16         -3.1510   -46.4560     9.3050 ca         1 L42      -0.288548
     20 H1          -1.0720   -52.4890     6.4960 ha         1 L42       0.172739
     21 H2          -3.4010   -51.9110     5.7850 ha         1 L42       0.119073
     22 H3          -3.9570   -49.5550     5.1730 ha         1 L42       0.137440
     23 H4          -2.2180   -47.7980     5.2880 ha         1 L42       0.162138
     24 H5          -0.1370   -46.4900     5.3360 hc         1 L42      -0.007667
     25 H6           1.5900   -46.6140     5.3920 hc         1 L42      -0.007667
     26 H7           0.8000   -44.9840     7.0500 hc         1 L42       0.042384
     27 H8           1.5660   -46.3280     7.8550 hc         1 L42       0.042384
     28 H9          -0.4370   -45.6840     9.0680 h1         1 L42       0.125187
     29 H10         -0.6730   -47.3000     8.3940 h1         1 L42       0.125187
     30 H11         -2.3430   -46.7550     9.9540 ha         1 L42       0.155126
     31 H12         -4.5860   -47.0160    10.8080 ha         1 L42       0.144493
     32 H13         -6.5540   -46.3720     9.4430 ha         1 L42       0.172347
     33 C17         -5.3750   -45.7200     7.7430 ca         1 L42       0.274102
     34 C18         -4.0610   -45.5640     7.2260 ca         1 L42       0.015863
     35 C19         -3.8920   -45.0360     5.9230 ca         1 L42      -0.207507
     36 C20         -5.0070   -44.6750     5.1470 ca         1 L42      -0.145596
     37 C21         -6.3050   -44.8360     5.6610 ca         1 L42      -0.127440
     38 C22         -6.4930   -45.3500     6.9560 ca         1 L42      -0.285749
     39 N1           0.9870   -50.4700     6.6480 na         1 L42      -0.580135
     40 H14         -2.9090   -44.8990     5.5000 ha         1 L42       0.157549
     41 H15         -4.8460   -44.2740     4.1550 ha         1 L42       0.129674
     42 H16         -7.1620   -44.5620     5.0630 ha         1 L42       0.130562
     43 H17         -7.4910   -45.4670     7.3450 ha         1 L42       0.149837
     44 H            1.5570   -51.2520     6.9440 hn         1 L42       0.389202
@<TRIPOS>BOND
     1     1     2 1   
     2     2     3 1   
     3     2     4 1   
     4     4    11 2   
     5     4    39 1   
     6     5     6 ar  
     7     5    10 ar  
     8     5    39 1   
     9     6     7 ar  
    10     6    20 1   
    11     7     8 ar  
    12     7    21 1   
    13     8     9 ar  
    14     8    22 1   
    15     9    10 ar  
    16     9    23 1   
    17    10    11 1   
    18    11    12 1   
    19    12    13 1   
    20    12    24 1   
    21    12    25 1   
    22    13    14 1   
    23    13    26 1   
    24    13    27 1   
    25    14    15 1   
    26    14    28 1   
    27    14    29 1   
    28    15    16 1   
    29    16    19 ar  
    30    16    34 ar  
    31    17    18 ar  
    32    17    32 1   
    33    17    33 ar  
    34    18    19 ar  
    35    18    31 1   
    36    19    30 1   
    37    33    34 ar  
    38    33    38 ar  
    39    34    35 ar  
    40    35    36 ar  
    41    35    40 1   
    42    36    37 ar  
    43    36    41 1   
    44    37    38 ar  
    45    37    42 1   
    46    38    43 1   
    47    39    44 1   
@<TRIPOS>SUBSTRUCTURE
     1 L42         1 TEMP              0 ****  ****    0 ROOT
