@<TRIPOS>MOLECULE
L84
   60    63     1     0     0
SMALL
resp


@<TRIPOS>ATOM
      1  O1         39.4260    18.2060    12.7910 o          1 L84      -0.783618
      2  C1         40.5390    17.6360    12.7360 c          1 L84       0.730814
      3  O2         41.4000    17.8210    11.8480 o          1 L84      -0.783618
      4  C2         40.8940    16.6400    13.8460 c3         1 L84       0.292471
      5  O3         42.1350    15.9820    13.6020 os         1 L84      -0.473407
      6  C3         42.5070    15.0960    14.5540 cc         1 L84       0.339574
      7  C6         42.1050    13.7640    14.6030 cc         1 L84      -0.237244
      8  C5         42.4740    13.0430    15.7310 cd         1 L84      -0.225690
      9  C8         42.1340    11.6810    16.1190 ca         1 L84       0.380744
     10  C9         43.0990    10.8230    16.6550 ca         1 L84      -0.294402
     11  C10        42.7730     9.5140    17.0060 ca         1 L84      -0.130003
     12  C11        41.4770     9.0400    16.8070 ca         1 L84      -0.385909
     13  C12        40.4940     9.8790    16.2660 ca         1 L84       0.504940
     14  N1         39.1730     9.4610    16.0230 nh         1 L84      -0.883104
     15  CK1        38.8800     8.0710    15.6820 c3         1 L84       0.470692
     16  CK2        37.3500     7.8630    15.5710 c3         1 L84      -0.242806
     17  CK3        36.9750     6.4540    15.0730 c3         1 L84      -0.012858
     18  NK         37.7100     6.1240    13.8430 n3         1 L84      -0.345362
     19  SR         36.9760     5.2050    12.5890 s6         1 L84       0.924160
     20  OR2        37.8360     5.3260    11.4040 o          1 L84      -0.553332
     21  OR1        35.5550     5.5860    12.5170 o          1 L84      -0.553332
     22 CV14        37.1040     3.4730    13.2180 c3         1 L84      -0.342387
     23 CV15        36.7140     2.5270    12.1000 ca         1 L84       0.135692
     24 CV16        35.3720     2.1870    11.9060 ca         1 L84      -0.041267
     25 CV17        35.0070     1.3510    10.8510 ca         1 L84      -0.243896
     26 CV18        35.9840     0.8540     9.9890 ca         1 L84      -0.115455
     27 CV19        37.3260     1.1810    10.1830 ca         1 L84      -0.243896
     28 CV20        37.6910     2.0150    11.2400 ca         1 L84      -0.041267
     29  CK4        39.1750     6.2320    13.9220 c3         1 L84      -0.012858
     30  CK5        39.5890     7.6410    14.3720 c3         1 L84      -0.242806
     31  C13        40.8300    11.1970    15.9490 ca         1 L84      -0.525792
     32  S1         43.4980    14.0500    16.7180 ss         1 L84      -0.137634
     33  C4         43.3220    15.4160    15.6300 cd         1 L84      -0.111693
     34  C7         44.0370    16.6620    15.9950 c          1 L84       0.835044
     35  O5         44.7250    16.6740    17.0400 o          1 L84      -0.779742
     36  O4         43.9390    17.6670    15.2560 o          1 L84      -0.779742
     37  H1         40.1110    15.8830    13.8900 h1         1 L84      -0.005024
     38  H2         40.8960    17.1440    14.8150 h1         1 L84      -0.005024
     39  H          41.5360    13.3170    13.8010 ha         1 L84       0.177214
     40  H3         44.1100    11.1700    16.8110 ha         1 L84       0.155204
     41  H4         43.5250     8.8660    17.4330 ha         1 L84       0.131409
     42  H5         41.2440     8.0200    17.0740 ha         1 L84       0.153940
     43  HN2        38.4490    10.1620    16.0960 hn         1 L84       0.356952
     44 HK11        39.2590     7.4690    16.5080 h1         1 L84      -0.000010
     45 HK21        36.8770     8.0460    16.5360 hc         1 L84       0.081441
     46 HK22        36.9350     8.6030    14.8870 hc         1 L84       0.081441
     47 HK31        37.2040     5.6980    15.8230 h1         1 L84       0.097302
     48 HK32        35.9000     6.3860    14.9020 h1         1 L84       0.097302
     49 HV13        38.1420     3.3050    13.5050 h1         1 L84       0.156497
     50 HV14        36.5000     3.3780    14.1200 h1         1 L84       0.156497
     51 HV15        34.6120     2.5580    12.5800 ha         1 L84       0.106204
     52 HV16        33.9690     1.0890    10.7060 ha         1 L84       0.142991
     53 HV17        35.7020     0.2150     9.1660 ha         1 L84       0.113825
     54 HV18        38.0790     0.7890     9.5150 ha         1 L84       0.142991
     55 HV19        38.7330     2.2600    11.3900 ha         1 L84       0.106204
     56 HK41        39.5250     5.4660    14.6130 h1         1 L84       0.097302
     57 HK42        39.6130     5.9830    12.9550 h1         1 L84       0.097302
     58 HK52        39.3500     8.3540    13.5830 hc         1 L84       0.081441
     59 HK51        40.6710     7.6850    14.4990 hc         1 L84       0.081441
     60  H6         40.0880    11.8680    15.5550 ha         1 L84       0.304149
@<TRIPOS>BOND
     1     1     2 1   
     2     2     3 1   
     3     2     4 1   
     4     4     5 1   
     5     4    37 1   
     6     4    38 1   
     7     5     6 1   
     8     6     7 1   
     9     6    33 2   
    10     7     8 2   
    11     7    39 1   
    12     8     9 1   
    13     8    32 1   
    14     9    10 ar  
    15     9    31 ar  
    16    10    11 ar  
    17    10    40 1   
    18    11    12 ar  
    19    11    41 1   
    20    12    13 ar  
    21    12    42 1   
    22    13    14 1   
    23    13    31 ar  
    24    14    15 1   
    25    14    43 1   
    26    15    16 1   
    27    15    30 1   
    28    15    44 1   
    29    16    17 1   
    30    16    45 1   
    31    16    46 1   
    32    17    18 1   
    33    17    47 1   
    34    17    48 1   
    35    18    19 1   
    36    18    29 1   
    37    19    20 2   
    38    19    21 2   
    39    19    22 1   
    40    22    23 1   
    41    22    49 1   
    42    22    50 1   
    43    23    24 ar  
    44    23    28 ar  
    45    24    25 ar  
    46    24    51 1   
    47    25    26 ar  
    48    25    52 1   
    49    26    27 ar  
    50    26    53 1   
    51    27    28 ar  
    52    27    54 1   
    53    28    55 1   
    54    29    30 1   
    55    29    56 1   
    56    29    57 1   
    57    30    58 1   
    58    30    59 1   
    59    31    60 1   
    60    32    33 1   
    61    33    34 1   
    62    34    35 1   
    63    34    36 1   
@<TRIPOS>SUBSTRUCTURE
     1 L84         1 TEMP              0 ****  ****    0 ROOT
