@<TRIPOS>MOLECULE
L7B
   47    50     1     0     0
SMALL
resp


@<TRIPOS>ATOM
      1 CP1         14.8880     4.7760     1.2260 c3         1 L7B       0.022221
      2 OP1         15.4960     3.5600     0.8390 os         1 L7B      -0.396887
      3 C13         15.4240     3.2070    -0.4880 ca         1 L7B       0.485346
      4 C12         15.1330     4.1080    -1.5370 ca         1 L7B      -0.323408
      5 C11         15.1100     3.6470    -2.8640 ca         1 L7B      -0.076043
      6 C10         15.3680     2.2910    -3.1540 ca         1 L7B      -0.296956
      7 C9          15.6270     1.3620    -2.1170 cp         1 L7B       0.136872
      8 C8          15.8150    -0.0830    -2.3960 cp         1 L7B       0.077671
      9 C7          16.3950    -0.4890    -3.6080 ca         1 L7B      -0.120232
     10 C6          16.5050    -1.8460    -3.9390 ca         1 L7B      -0.209792
     11 C5          16.0400    -2.8370    -3.0550 ca         1 L7B      -0.129429
     12 C4          15.4690    -2.4840    -1.8060 ca         1 L7B       0.174746
     13 C3          14.8770    -3.4950    -0.7770 c3         1 L7B      -0.225344
     14 CA1         15.0970    -5.0250    -0.8830 cx         1 L7B      -0.041697
     15 CA2         14.8830    -5.8410    -2.1340 cx         1 L7B      -0.272762
     16 CA3         16.2580    -5.7570    -1.5170 cx         1 L7B      -0.272762
     17 N3          15.2830    -3.1270     0.5770 nh         1 L7B      -0.650116
     18 C2          14.2460    -2.7940     1.3470 cz         1 L7B       0.815169
     19 N2          14.3920    -2.4610     2.6330 nh         1 L7B      -0.994964
     20 N1          13.0880    -2.8500     0.6740 n          1 L7B      -0.111067
     21 C1          11.7610    -2.5500     1.2230 c3         1 L7B      -0.256673
     22 C16         13.3580    -3.2550    -0.6670 c          1 L7B       0.555721
     23 O1          12.4980    -3.3910    -1.5420 o          1 L7B      -0.444221
     24 C15         15.3880    -1.0930    -1.5000 ca         1 L7B      -0.209261
     25 C14         15.6600     1.8540    -0.7970 ca         1 L7B      -0.385764
     26 HP1         14.9250     4.8680     2.3120 h1         1 L7B       0.070616
     27 HP2         15.3960     5.6330     0.7980 h1         1 L7B       0.070616
     28 HP3         13.8480     4.8040     0.9120 h1         1 L7B       0.070616
     29 H11         14.9340     5.1530    -1.3550 ha         1 L7B       0.169995
     30 H10         14.8810     4.3380    -3.6570 ha         1 L7B       0.163045
     31 H9          15.3230     1.9590    -4.1830 ha         1 L7B       0.155758
     32 H8          16.7450     0.2550    -4.3040 ha         1 L7B       0.163065
     33 H7          16.9430    -2.1070    -4.8910 ha         1 L7B       0.179452
     34 H6          16.1430    -3.8500    -3.3920 ha         1 L7B       0.165308
     35 HA1         14.7320    -5.5260     0.0160 hc         1 L7B       0.150409
     36 HA2         14.3440    -6.7810    -2.0390 hc         1 L7B       0.158242
     37 HA3         14.6920    -5.3030    -3.0520 hc         1 L7B       0.158242
     38 HA4         17.0100    -5.2040    -2.0610 hc         1 L7B       0.158242
     39 HA5         16.6260    -6.6390    -0.9950 hc         1 L7B       0.158242
     40 H5          16.2620    -3.0820     0.8650 hn         1 L7B       0.461334
     41 H4          13.6430    -2.1220     3.2370 hn         1 L7B       0.485279
     42 H1          11.8060    -1.5720     1.6900 h1         1 L7B       0.144797
     43 H2          11.4780    -3.2830     1.9790 h1         1 L7B       0.144797
     44 H3          10.9880    -2.5220     0.4540 h1         1 L7B       0.144797
     45 H13         14.9340    -0.7830    -0.5720 ha         1 L7B       0.130692
     46 H12         15.8580     1.1780     0.0150 ha         1 L7B       0.160807
     47 H14         15.3340    -2.4340     3.0260 hn         1 L7B       0.485279
@<TRIPOS>BOND
     1     1     2 1   
     2     1    26 1   
     3     1    27 1   
     4     1    28 1   
     5     2     3 1   
     6     3     4 ar  
     7     3    25 ar  
     8     4     5 ar  
     9     4    29 1   
    10     5     6 ar  
    11     5    30 1   
    12     6     7 ar  
    13     6    31 1   
    14     7     8 1   
    15     7    25 ar  
    16     8     9 ar  
    17     8    24 ar  
    18     9    10 ar  
    19     9    32 1   
    20    10    11 ar  
    21    10    33 1   
    22    11    12 ar  
    23    11    34 1   
    24    12    13 1   
    25    12    24 ar  
    26    13    14 1   
    27    13    17 1   
    28    13    22 1   
    29    14    15 1   
    30    14    16 1   
    31    14    35 1   
    32    15    16 1   
    33    15    36 1   
    34    15    37 1   
    35    16    38 1   
    36    16    39 1   
    37    17    18 2   
    38    17    40 1   
    39    18    19 1   
    40    18    20 1   
    41    19    41 1   
    42    19    47 1   
    43    20    21 1   
    44    20    22 1   
    45    21    42 1   
    46    21    43 1   
    47    21    44 1   
    48    22    23 2   
    49    24    45 1   
    50    25    46 1   
@<TRIPOS>SUBSTRUCTURE
     1 L7B         1 TEMP              0 ****  ****    0 ROOT
