@<TRIPOS>MOLECULE
L58
   47    49     1     0     0
SMALL
resp


@<TRIPOS>ATOM
      1 O1           3.8900   -49.8260     7.1170 o          1 L58      -0.779603
      2 C1           3.1440   -48.9590     6.6060 c          1 L58       0.872898
      3 O2           3.6300   -47.8560     6.2830 o          1 L58      -0.779603
      4 C2           1.6970   -49.2070     6.4080 cc         1 L58      -0.044802
      5 C3          -0.2620   -50.3560     6.4460 ca         1 L58       0.031729
      6 C4          -1.3370   -51.2910     6.5990 ca         1 L58      -0.160414
      7 C5          -2.6510   -50.8980     6.3450 ca         1 L58       0.025635
      8 C6          -2.9190   -49.5840     5.8920 ca         1 L58      -0.180639
      9 C7          -1.8520   -48.6550     5.7230 ca         1 L58      -0.219218
     10 C8          -0.5270   -49.0250     6.0090 ca         1 L58       0.099539
     11 C9           0.7200   -48.3230     5.9890 cd         1 L58      -0.227801
     12 C10          0.8740   -46.8710     5.6030 c3         1 L58       0.119241
     13 C11          0.9590   -45.9340     6.8260 c3         1 L58      -0.075529
     14 C12         -0.3000   -45.9590     7.7130 c3         1 L58      -0.176539
     15 O3          -1.3810   -45.3770     6.9940 os         1 L58      -0.341923
     16 C13         -2.6480   -45.4530     7.5320 ca         1 L58       0.535014
     17 C16         -2.9720   -46.1370     8.7270 ca         1 L58      -0.585955
     18 C15         -4.3040   -46.2020     9.1840 ca         1 L58       0.380355
     19 CC1         -4.6220   -46.9920    10.4410 c3         1 L58      -0.240151
     20 C14         -5.3300   -45.5560     8.4560 ca         1 L58      -0.282766
     21 CL1         -6.9730   -45.6520     8.9920 cl         1 L58      -0.130868
     22 C17         -5.0110   -44.8440     7.2770 ca         1 L58       0.380355
     23 CH1         -6.0920   -44.1320     6.4830 c3         1 L58      -0.240151
     24 C18         -3.6780   -44.8070     6.8250 ca         1 L58      -0.585955
     25 CL3         -4.0050   -51.9680     6.5930 cl         1 L58      -0.187452
     26 H1          -1.1150   -52.2740     6.9370 ha         1 L58       0.138451
     27 H3          -3.9350   -49.2810     5.6870 ha         1 L58       0.135852
     28 H4          -2.0600   -47.6480     5.3950 ha         1 L58       0.178693
     29 H5           0.0380   -46.5720     4.9670 hc         1 L58       0.000664
     30 H6           1.7620   -46.7430     4.9760 hc         1 L58       0.000664
     31 H7           1.1430   -44.9190     6.4760 hc         1 L58       0.078026
     32 H8           1.8300   -46.2000     7.4260 hc         1 L58       0.078026
     33 H9          -0.1100   -45.3930     8.6240 h1         1 L58       0.130234
     34 H10         -0.5360   -46.9810     8.0130 h1         1 L58       0.130234
     35 H11         -2.2030   -46.6280     9.3000 ha         1 L58       0.212122
     36 HC1         -5.3070   -46.4450    11.0890 hc         1 L58       0.071658
     37 HC2         -5.0860   -47.9400    10.1740 hc         1 L58       0.071658
     38 HC3         -3.7220   -47.2060    11.0150 hc         1 L58       0.071658
     39 HH1         -5.6780   -43.5910     5.6300 hc         1 L58       0.071658
     40 HH2         -6.8230   -44.8480     6.1040 hc         1 L58       0.071658
     41 HH3         -6.6130   -43.4120     7.1140 hc         1 L58       0.071658
     42 H19         -3.4370   -44.2790     5.9160 ha         1 L58       0.212122
     43 CS1          1.7840   -51.7160     7.0810 c3         1 L58      -0.218640
     44 HS1          1.0620   -52.5160     7.1330 h1         1 L58       0.098252
     45 HS2          2.5410   -52.0050     6.3530 h1         1 L58       0.098252
     46 HS3          2.2130   -51.5910     8.0740 h1         1 L58       0.098252
     47 N1           1.1080   -50.4700     6.6570 na         1 L58      -0.006545
@<TRIPOS>BOND
     1     1     2 1   
     2     2     3 1   
     3     2     4 1   
     4     4    11 2   
     5     4    47 1   
     6     5     6 ar  
     7     5    10 ar  
     8     5    47 1   
     9     6     7 ar  
    10     6    26 1   
    11     7     8 ar  
    12     7    25 1   
    13     8     9 ar  
    14     8    27 1   
    15     9    10 ar  
    16     9    28 1   
    17    10    11 1   
    18    11    12 1   
    19    12    13 1   
    20    12    29 1   
    21    12    30 1   
    22    13    14 1   
    23    13    31 1   
    24    13    32 1   
    25    14    15 1   
    26    14    33 1   
    27    14    34 1   
    28    15    16 1   
    29    16    17 ar  
    30    16    24 ar  
    31    17    18 ar  
    32    17    35 1   
    33    18    19 1   
    34    18    20 ar  
    35    19    36 1   
    36    19    37 1   
    37    19    38 1   
    38    20    21 1   
    39    20    22 ar  
    40    22    23 1   
    41    22    24 ar  
    42    23    39 1   
    43    23    40 1   
    44    23    41 1   
    45    24    42 1   
    46    43    44 1   
    47    43    45 1   
    48    43    46 1   
    49    43    47 1   
@<TRIPOS>SUBSTRUCTURE
     1 L58         1 TEMP              0 ****  ****    0 ROOT
