@<TRIPOS>MOLECULE
L4A
   46    49     1     0     0
SMALL
resp


@<TRIPOS>ATOM
      1 C1          11.7150    -2.2820     1.2490 c3         1 L4A      -0.243856
      2 N1          13.0380    -2.6190     0.7080 n          1 L4A      -0.143052
      3 C2          14.2060    -2.6010     1.3670 cz         1 L4A       0.751850
      4 N2          14.3790    -2.3440     2.6660 nh         1 L4A      -0.971081
      5 N3          15.2290    -2.8860     0.5640 nh         1 L4A      -0.484757
      6 C3          14.8080    -3.2130    -0.8000 c3         1 L4A      -0.322856
      7 CO1         15.1470    -4.6960    -1.0820 ca         1 L4A       0.084856
      8 CO2         16.3600    -5.2250    -0.5920 ca         1 L4A      -0.133357
      9 CO3         16.7230    -6.5670    -0.7950 ca         1 L4A      -0.159900
     10 CO4         15.8490    -7.4280    -1.4700 ca         1 L4A      -0.079365
     11 CO5         14.6350    -6.9310    -1.9710 ca         1 L4A      -0.159900
     12 CO6         14.2940    -5.5760    -1.7920 ca         1 L4A      -0.133357
     13 C4          15.3970    -2.2030    -1.8010 ca         1 L4A       0.298454
     14 C5          15.9970    -2.6080    -3.0160 ca         1 L4A      -0.243550
     15 C6          16.4810    -1.6420    -3.9170 ca         1 L4A      -0.169515
     16 C7          16.3580    -0.2710    -3.6260 ca         1 L4A      -0.089620
     17 C8          15.7920     0.1720    -2.4130 cp         1 L4A      -0.030850
     18 C9          15.6400     1.6150    -2.0980 cp         1 L4A       0.135394
     19 C10         15.4540     2.5840    -3.1120 ca         1 L4A      -0.180476
     20 C11         15.2100     3.9360    -2.7900 ca         1 L4A      -0.149560
     21 C12         15.1600     4.3490    -1.4470 ca         1 L4A      -0.110589
     22 C13         15.3890     3.4120    -0.4270 ca         1 L4A      -0.149560
     23 C14         15.6320     2.0660    -0.7580 ca         1 L4A      -0.180476
     24 C15         15.3280    -0.8150    -1.5130 ca         1 L4A      -0.221738
     25 C16         13.2880    -2.9670    -0.6530 c          1 L4A       0.612839
     26 O1          12.4110    -3.0210    -1.5240 o          1 L4A      -0.448557
     27 H1          11.5250    -1.2190     1.1030 h1         1 L4A       0.143878
     28 H2          10.9260    -2.8400     0.7450 h1         1 L4A       0.143878
     29 H3          11.6590    -2.5030     2.3140 h1         1 L4A       0.143878
     30 H4          15.3220    -2.3530     3.0550 hn         1 L4A       0.479378
     31 H5          16.2070    -2.8880     0.8510 hn         1 L4A       0.406724
     32 HO2         17.0260    -4.6000    -0.0250 ha         1 L4A       0.146717
     33 HO3         17.6620    -6.9340    -0.4060 ha         1 L4A       0.162760
     34 HO4         16.1110    -8.4660    -1.5840 ha         1 L4A       0.150910
     35 HO5         13.9630    -7.5970    -2.4920 ha         1 L4A       0.162760
     36 HO6         13.3570    -5.2350    -2.1940 ha         1 L4A       0.146717
     37 H6          16.0920    -3.6530    -3.2800 ha         1 L4A       0.198636
     38 H7          16.9370    -1.9470    -4.8490 ha         1 L4A       0.174918
     39 H8          16.7040     0.4470    -4.3530 ha         1 L4A       0.150595
     40 H9          15.4490     2.2870    -4.1500 ha         1 L4A       0.139784
     41 H10         15.0280     4.6610    -3.5680 ha         1 L4A       0.151698
     42 H11         14.9460     5.3790    -1.2000 ha         1 L4A       0.144342
     43 H           15.3640     3.7200     0.6080 ha         1 L4A       0.151698
     44 H12         15.8120     1.3690     0.0410 ha         1 L4A       0.139784
     45 H13         14.8640    -0.4920    -0.5940 ha         1 L4A       0.104145
     46 H14         13.6370    -2.0530     3.3010 hn         1 L4A       0.479378
@<TRIPOS>BOND
     1     1     2 1   
     2     1    27 1   
     3     1    28 1   
     4     1    29 1   
     5     2     3 2   
     6     2    25 1   
     7     3     4 1   
     8     3     5 1   
     9     4    30 1   
    10     4    46 1   
    11     5     6 1   
    12     5    31 1   
    13     6     7 1   
    14     6    13 1   
    15     6    25 1   
    16     7     8 ar  
    17     7    12 ar  
    18     8     9 ar  
    19     8    32 1   
    20     9    10 ar  
    21     9    33 1   
    22    10    11 ar  
    23    10    34 1   
    24    11    12 ar  
    25    11    35 1   
    26    12    36 1   
    27    13    14 ar  
    28    13    24 ar  
    29    14    15 ar  
    30    14    37 1   
    31    15    16 ar  
    32    15    38 1   
    33    16    17 ar  
    34    16    39 1   
    35    17    18 1   
    36    17    24 ar  
    37    18    19 ar  
    38    18    23 ar  
    39    19    20 ar  
    40    19    40 1   
    41    20    21 ar  
    42    20    41 1   
    43    21    22 ar  
    44    21    42 1   
    45    22    23 ar  
    46    22    43 1   
    47    23    44 1   
    48    24    45 1   
    49    25    26 2   
@<TRIPOS>SUBSTRUCTURE
     1 L4A         1 TEMP              0 ****  ****    0 ROOT
