@<TRIPOS>MOLECULE
L23
   43    46     1     0     0
SMALL
resp


@<TRIPOS>ATOM
      1 O1           3.9450   -49.5970     7.0410 o          1 L23      -0.747243
      2 C1           3.1360   -48.7360     6.6230 c          1 L23       0.808132
      3 O2           3.5090   -47.5620     6.3940 o          1 L23      -0.747243
      4 C2           1.7050   -49.1070     6.4070 cc         1 L23       0.023778
      5 S1           1.3260   -50.7950     6.6840 ss         1 L23      -0.147467
      6 C3          -0.3700   -50.5330     6.3110 ca         1 L23      -0.038619
      7 C4          -1.4070   -51.4760     6.3360 ca         1 L23      -0.169292
      8 C5          -2.7210   -51.0960     6.0060 ca         1 L23      -0.211578
      9 C6          -2.9840   -49.7600     5.6500 ca         1 L23      -0.129526
     10 C7          -1.9350   -48.8210     5.6280 ca         1 L23      -0.285082
     11 C8          -0.6070   -49.1680     5.9620 ca         1 L23       0.271289
     12 C9           0.5990   -48.3580     6.0320 cd         1 L23      -0.257027
     13 C10          0.5990   -46.8760     5.7330 c3         1 L23       0.128866
     14 C11          0.5110   -45.9950     6.9970 c3         1 L23      -0.069353
     15 C12         -0.7270   -46.2230     7.8890 c3         1 L23      -0.059899
     16 O3          -1.9200   -45.8790     7.1950 os         1 L23      -0.280999
     17 C13         -3.1300   -45.9370     7.8650 ca         1 L23       0.211489
     18 C14         -5.6580   -45.9750     9.1650 ca         1 L23      -0.383704
     19 C15         -4.5050   -46.3960     9.8520 ca         1 L23      -0.095466
     20 C16         -3.2500   -46.3740     9.2100 ca         1 L23      -0.276160
     21 H1          -1.1980   -52.5010     6.6100 ha         1 L23       0.167478
     22 H2          -3.5250   -51.8150     6.0320 ha         1 L23       0.128508
     23 H3          -3.9860   -49.4500     5.3940 ha         1 L23       0.122299
     24 H4          -2.1610   -47.8020     5.3570 ha         1 L23       0.177236
     25 H5          -0.2260   -46.6290     5.0690 hc         1 L23      -0.004524
     26 H6           1.5000   -46.6010     5.1710 hc         1 L23      -0.004524
     27 H7           0.5400   -44.9450     6.6980 hc         1 L23       0.054558
     28 H8           1.4020   -46.1650     7.6020 hc         1 L23       0.054558
     29 H9          -0.6290   -45.5830     8.7630 h1         1 L23       0.096926
     30 H10         -0.7630   -47.2540     8.2400 h1         1 L23       0.096926
     31 H11         -2.3980   -46.7020     9.7960 ha         1 L23       0.152117
     32 H12         -4.5730   -46.7370    10.8720 ha         1 L23       0.145961
     33 H13         -6.6110   -45.9950     9.6790 ha         1 L23       0.170290
     34 C17         -5.5580   -45.5470     7.8300 ca         1 L23       0.251551
     35 C18         -4.3030   -45.5380     7.1790 ca         1 L23       0.035303
     36 C19         -4.2260   -45.1320     5.8360 ca         1 L23      -0.198782
     37 C20         -5.3870   -44.7270     5.1420 ca         1 L23      -0.155084
     38 C21         -6.6340   -44.7210     5.7970 ca         1 L23      -0.124765
     39 C22         -6.7130   -45.1300     7.1470 ca         1 L23      -0.278574
     40 H14         -3.2840   -45.1200     5.2970 ha         1 L23       0.154883
     41 H15         -5.3240   -44.4190     4.1040 ha         1 L23       0.132731
     42 H16         -7.5220   -44.4070     5.2700 ha         1 L23       0.130491
     43 H17         -7.6790   -45.1190     7.6400 ha         1 L23       0.149540
@<TRIPOS>BOND
     1     1     2 1   
     2     2     3 1   
     3     2     4 1   
     4     4     5 1   
     5     4    12 2   
     6     5     6 1   
     7     6     7 ar  
     8     6    11 ar  
     9     7     8 ar  
    10     7    21 1   
    11     8     9 ar  
    12     8    22 1   
    13     9    10 ar  
    14     9    23 1   
    15    10    11 ar  
    16    10    24 1   
    17    11    12 1   
    18    12    13 1   
    19    13    14 1   
    20    13    25 1   
    21    13    26 1   
    22    14    15 1   
    23    14    27 1   
    24    14    28 1   
    25    15    16 1   
    26    15    29 1   
    27    15    30 1   
    28    16    17 1   
    29    17    20 ar  
    30    17    35 ar  
    31    18    19 ar  
    32    18    33 1   
    33    18    34 ar  
    34    19    20 ar  
    35    19    32 1   
    36    20    31 1   
    37    34    35 ar  
    38    34    39 ar  
    39    35    36 ar  
    40    36    37 ar  
    41    36    40 1   
    42    37    38 ar  
    43    37    41 1   
    44    38    39 ar  
    45    38    42 1   
    46    39    43 1   
@<TRIPOS>SUBSTRUCTURE
     1 L23         1 TEMP              0 ****  ****    0 ROOT
