@<TRIPOS>MOLECULE
L37
   44    46     1     0     0
SMALL
resp


@<TRIPOS>ATOM
      1 O1           3.8720   -50.2360     7.2250 o          1 L37      -0.795987
      2 C1           3.1320   -49.2780     6.8990 c          1 L37       0.878192
      3 O2           3.5610   -48.1080     6.8530 o          1 L37      -0.795987
      4 C2           1.7190   -49.5690     6.5710 cc         1 L37       0.058710
      5 C3          -0.0590   -50.9950     6.4010 ca         1 L37       0.352600
      6 C4          -0.9540   -52.0850     6.4150 ca         1 L37      -0.376193
      7 C5          -2.3090   -51.8730     6.0770 ca         1 L37      -0.117963
      8 C6          -2.7530   -50.5880     5.7200 ca         1 L37      -0.255462
      9 C7          -1.8510   -49.5040     5.7070 ca         1 L37      -0.209037
     10 C8          -0.4750   -49.6830     6.0510 ca         1 L37       0.067247
     11 C9           0.6550   -48.7960     6.1720 cd         1 L37      -0.318870
     12 C10          0.6190   -47.3140     5.9500 c3         1 L37       0.168880
     13 C11          0.2590   -46.5730     7.2460 c3         1 L37       0.059918
     14 C12         -0.2680   -45.1540     7.0160 c3         1 L37      -0.010285
     15 O3          -1.4270   -45.1830     6.1900 os         1 L37      -0.498809
     16 C13         -2.6770   -45.3020     6.7520 ca         1 L37       0.713885
     17 C16         -2.9170   -45.6760     8.0960 ca         1 L37      -0.645897
     18 C15         -4.2340   -45.8320     8.5750 ca         1 L37       0.368674
     19 CC1         -4.4650   -46.3040     9.9960 c3         1 L37      -0.267564
     20 C14         -5.3340   -45.5820     7.7210 ca         1 L37      -0.284968
     21 CL1         -6.9500   -45.7880     8.3010 cl         1 L37      -0.132769
     22 C17         -5.0970   -45.1840     6.3840 ca         1 L37       0.368674
     23 CH1         -6.2590   -44.9540     5.4350 c3         1 L37      -0.267564
     24 C18         -3.7750   -45.0570     5.9070 ca         1 L37      -0.645897
     25 H1          -0.6100   -53.0640     6.6890 ha         1 L37       0.174090
     26 H2          -3.0080   -52.6920     6.0930 ha         1 L37       0.119249
     27 H3          -3.7880   -50.4240     5.4560 ha         1 L37       0.133425
     28 H4          -2.2150   -48.5190     5.4340 ha         1 L37       0.161590
     29 H5          -0.1070   -47.0890     5.1680 hc         1 L37       0.008642
     30 H6           1.5800   -46.9590     5.5730 hc         1 L37       0.008642
     31 H7           1.1250   -46.5600     7.9060 hc         1 L37      -0.000825
     32 H8          -0.5110   -47.1360     7.7770 hc         1 L37      -0.000825
     33 H9           0.4900   -44.5610     6.4970 h1         1 L37       0.097703
     34 H10         -0.4530   -44.6510     7.9620 h1         1 L37       0.097703
     35 H11         -2.1050   -45.8850     8.7750 ha         1 L37       0.234548
     36 HC1         -5.0630   -45.5830    10.5540 hc         1 L37       0.081809
     37 HC2         -4.9880   -47.2630     9.9920 hc         1 L37       0.081809
     38 HC3         -3.5240   -46.4500    10.5300 hc         1 L37       0.081809
     39 HH1         -5.9140   -44.6060     4.4590 hc         1 L37       0.081809
     40 HH2         -6.8180   -45.8820     5.2860 hc         1 L37       0.081809
     41 HH3         -6.9400   -44.2050     5.8400 hc         1 L37       0.081809
     42 H19         -3.6030   -44.7870     4.8770 ha         1 L37       0.234548
     43 N1           1.2930   -50.8810     6.6910 na         1 L37      -0.555195
     44 H            1.9240   -51.5960     7.0010 hn         1 L37       0.382323
@<TRIPOS>BOND
     1     1     2 1   
     2     2     3 1   
     3     2     4 1   
     4     4    11 2   
     5     4    43 1   
     6     5     6 ar  
     7     5    10 ar  
     8     5    43 1   
     9     6     7 ar  
    10     6    25 1   
    11     7     8 ar  
    12     7    26 1   
    13     8     9 ar  
    14     8    27 1   
    15     9    10 ar  
    16     9    28 1   
    17    10    11 1   
    18    11    12 1   
    19    12    13 1   
    20    12    29 1   
    21    12    30 1   
    22    13    14 1   
    23    13    31 1   
    24    13    32 1   
    25    14    15 1   
    26    14    33 1   
    27    14    34 1   
    28    15    16 1   
    29    16    17 ar  
    30    16    24 ar  
    31    17    18 ar  
    32    17    35 1   
    33    18    19 1   
    34    18    20 ar  
    35    19    36 1   
    36    19    37 1   
    37    19    38 1   
    38    20    21 1   
    39    20    22 ar  
    40    22    23 1   
    41    22    24 ar  
    42    23    39 1   
    43    23    40 1   
    44    23    41 1   
    45    24    42 1   
    46    43    44 1   
@<TRIPOS>SUBSTRUCTURE
     1 L37         1 TEMP              0 ****  ****    0 ROOT
