@<TRIPOS>MOLECULE
L69
   41    43     1     0     0
SMALL
resp


@<TRIPOS>ATOM
      1 O1          39.1680    17.5120    12.6950 o          1 L69      -0.851268
      2 C1          40.3250    17.0340    12.6930 c          1 L69       0.911769
      3 O2          41.2000    17.2660    11.8310 o          1 L69      -0.851268
      4 C2          40.7260    16.1090    13.8450 c3         1 L69      -0.032661
      5 O3          42.0920    15.7290    13.7440 os         1 L69      -0.315400
      6 C3          42.5150    14.9210    14.7390 cc         1 L69       0.291427
      7 C6          42.1860    13.5750    14.8670 cc         1 L69      -0.213965
      8 BR1         41.2050    12.6510    13.5170 br         1 L69      -0.054590
      9 C5          42.6250    12.9340    16.0150 cd         1 L69       0.057089
     10 C8          42.3440    11.5880    16.4780 ca         1 L69       0.036506
     11 C9          43.3650    10.7570    16.9470 ca         1 L69      -0.053859
     12 C10         43.0860     9.4570    17.3660 ca         1 L69      -0.249812
     13 C11         41.7790     8.9720    17.3120 ca         1 L69      -0.196792
     14 C12         40.7400     9.7890    16.8450 ca         1 L69       0.238810
     15 N1          39.3980     9.3770    16.7740 n          1 L69      -0.603156
     16 CB          38.9980     7.9740    16.7120 c          1 L69       0.795752
     17 OB          38.6110     7.3060    17.6710 o          1 L69      -0.624103
     18 CC2         39.0450     7.4080    15.2990 ca         1 L69      -0.158261
     19 CC3         40.2640     7.0600    14.7070 ca         1 L69      -0.082206
     20 CC4         40.2940     6.5240    13.4200 ca         1 L69      -0.150402
     21 CC5         39.1060     6.3130    12.7240 ca         1 L69      -0.123301
     22 CC6         37.8880     6.6560    13.3070 ca         1 L69      -0.150402
     23 CC7         37.8550     7.2050    14.5890 ca         1 L69      -0.082206
     24 C13         41.0350    11.0940    16.4480 ca         1 L69      -0.251834
     25 S1          43.6360    14.0250    16.9150 ss         1 L69      -0.148918
     26 C4          43.3650    15.3250    15.7670 cd         1 L69      -0.093941
     27 C7          44.0480    16.6110    16.0390 c          1 L69       0.794602
     28 O4          43.8750    17.5610    15.2440 o          1 L69      -0.752646
     29 O5          44.7770    16.7160    17.0510 o          1 L69      -0.752646
     30 H2          40.5590    16.6190    14.7940 h1         1 L69       0.044347
     31 H1          40.0730    15.2340    13.8220 h1         1 L69       0.044347
     32 H3          44.3830    11.1170    16.9880 ha         1 L69       0.107906
     33 H4          43.8820     8.8280    17.7350 ha         1 L69       0.150527
     34 H5          41.5950     7.9650    17.6500 ha         1 L69       0.174047
     35 HN2         38.7230    10.1210    16.6810 hn         1 L69       0.317555
     36 HC7         41.1960     7.1940    15.2380 ha         1 L69       0.125976
     37 HC8         41.2390     6.2670    12.9640 ha         1 L69       0.133455
     38 HC9         39.1280     5.8810    11.7340 ha         1 L69       0.126061
     39 HC0         36.9660     6.4950    12.7670 ha         1 L69       0.133455
     40 HC1         36.9050     7.4760    15.0280 ha         1 L69       0.125976
     41 H6          40.2340    11.7360    16.1100 ha         1 L69       0.184029
@<TRIPOS>BOND
     1     1     2 1   
     2     2     3 1   
     3     2     4 1   
     4     4     5 1   
     5     4    30 1   
     6     4    31 1   
     7     5     6 1   
     8     6     7 1   
     9     6    26 2   
    10     7     8 1   
    11     7     9 2   
    12     9    10 1   
    13     9    25 1   
    14    10    11 ar  
    15    10    24 ar  
    16    11    12 ar  
    17    11    32 1   
    18    12    13 ar  
    19    12    33 1   
    20    13    14 ar  
    21    13    34 1   
    22    14    15 1   
    23    14    24 ar  
    24    15    16 1   
    25    15    35 1   
    26    16    17 2   
    27    16    18 1   
    28    18    19 ar  
    29    18    23 ar  
    30    19    20 ar  
    31    19    36 1   
    32    20    21 ar  
    33    20    37 1   
    34    21    22 ar  
    35    21    38 1   
    36    22    23 ar  
    37    22    39 1   
    38    23    40 1   
    39    24    41 1   
    40    25    26 1   
    41    26    27 1   
    42    27    28 1   
    43    27    29 1   
@<TRIPOS>SUBSTRUCTURE
     1 L69         1 TEMP              0 ****  ****    0 ROOT
