@<TRIPOS>MOLECULE
L34
   46    47     1     0     0
SMALL
resp


@<TRIPOS>ATOM
      1  C1         24.0730    12.4030    30.2320 c3         1 L34      -0.364631
      2  C2         23.3270    11.0820    30.4340 c3         1 L34       0.399945
      3  O1         22.2090    11.3390    31.2780 os         1 L34      -0.442363
      4  C3         21.4080    10.2890    31.6940 ca         1 L34       0.855389
      5  N1         21.7460     9.0390    31.2730 nb         1 L34      -0.787249
      6  C4         20.9690     8.0100    31.6440 ca         1 L34       0.759958
      7  C5         19.8630     8.1540    32.4700 ca         1 L34      -0.806362
      8  C6         19.5190     9.4250    32.8940 ca         1 L34       0.743212
      9  N2         18.3840     9.5060    33.6910 nh         1 L34      -0.954491
     10  C7         20.2910    10.5310    32.5020 ca         1 L34      -0.664628
     11  C8         19.9690    11.9010    32.8840 cg         1 L34       0.502795
     12  N3         19.7200    12.9910    33.1810 n1         1 L34      -0.533914
     13  N4         21.4260     6.8280    31.0990 n          1 L34      -0.541875
     14  C9         20.8490     5.6260    31.0240 c          1 L34       0.710076
     15  O2         19.7220     5.3640    31.4400 o          1 L34      -0.603113
     16  C10        21.6450     4.5490    30.2960 c3         1 L34      -0.129876
     17  C11        23.0490     4.3420    30.8590 ca         1 L34       0.072306
     18  C12        24.1090     5.1750    30.4710 ca         1 L34       0.133658
     19  O12        23.8250     6.2110    29.5990 os         1 L34      -0.165748
     20 C121        24.7820     7.2540    29.4260 c3         1 L34      -0.298776
     21  C13        25.3880     4.9250    30.9870 ca         1 L34      -0.245486
     22  C14        25.5910     3.9090    31.9220 ca         1 L34      -0.313928
     23  C15        24.5220     3.1090    32.3470 ca         1 L34       0.434263
     24  C16        23.2660     3.3180    31.7860 ca         1 L34      -0.383345
     25  O15        24.6160     2.1140    33.2980 os         1 L34      -0.377357
     26 C151        25.8220     1.9830    34.0420 c3         1 L34       0.061164
     27  H1         24.9320    12.2710    29.5740 hc         1 L34       0.097951
     28  H2         23.4200    13.1520    29.7830 hc         1 L34       0.097951
     29  H3         24.4310    12.7990    31.1820 hc         1 L34       0.097951
     30  H4         22.9920    10.6830    29.4740 h1         1 L34      -0.009568
     31  H5         23.9960    10.3470    30.8880 h1         1 L34      -0.009568
     32  H6         19.2680     7.3080    32.7670 ha         1 L34       0.309724
     33  H7         17.9990    10.4110    33.9500 hn         1 L34       0.426450
     34  H8         17.9030     8.6580    33.9750 hn         1 L34       0.426450
     35  H9         22.3340     6.9320    30.6730 hn         1 L34       0.248001
     36  H10        21.0990     3.6090    30.2960 hc         1 L34       0.062619
     37  H11        21.7110     4.8750    29.2640 hc         1 L34       0.062619
     38 H121        25.6790     6.8960    28.9180 h1         1 L34       0.139351
     39 H122        24.3490     8.0400    28.8070 h1         1 L34       0.139351
     40 H123        25.0650     7.7070    30.3780 h1         1 L34       0.139351
     41  H13        26.2340     5.5260    30.6900 ha         1 L34       0.181513
     42  H14        26.5850     3.7610    32.3160 ha         1 L34       0.179427
     43  H16        22.4550     2.6720    32.0910 ha         1 L34       0.194686
     44 H151        26.6590     1.6970    33.4040 h1         1 L34       0.052040
     45 H152        26.0720     2.9040    34.5710 h1         1 L34       0.052040
     46 H153        25.7000     1.2000    34.7910 h1         1 L34       0.052040
@<TRIPOS>BOND
     1     1     2 1   
     2     1    27 1   
     3     1    28 1   
     4     1    29 1   
     5     2     3 1   
     6     2    30 1   
     7     2    31 1   
     8     3     4 1   
     9     4     5 ar  
    10     4    10 ar  
    11     5     6 ar  
    12     6     7 ar  
    13     6    13 1   
    14     7     8 ar  
    15     7    32 1   
    16     8     9 1   
    17     8    10 ar  
    18     9    33 1   
    19     9    34 1   
    20    10    11 1   
    21    11    12 3   
    22    13    14 1   
    23    13    35 1   
    24    14    15 2   
    25    14    16 1   
    26    16    17 1   
    27    16    36 1   
    28    16    37 1   
    29    17    18 ar  
    30    17    24 ar  
    31    18    19 1   
    32    18    21 ar  
    33    19    20 1   
    34    20    38 1   
    35    20    39 1   
    36    20    40 1   
    37    21    22 ar  
    38    21    41 1   
    39    22    23 ar  
    40    22    42 1   
    41    23    24 ar  
    42    23    25 1   
    43    24    43 1   
    44    25    26 1   
    45    26    44 1   
    46    26    45 1   
    47    26    46 1   
@<TRIPOS>SUBSTRUCTURE
     1 L34         1 TEMP              0 ****  ****    0 ROOT
