@<TRIPOS>MOLECULE
L73
   41    43     1     0     0
SMALL
resp


@<TRIPOS>ATOM
      1 O2          41.1490    17.2240    11.7780 o          1 L73      -0.841831
      2 C1          40.3530    17.1030    12.7360 c          1 L73       1.121987
      3 O1          39.2220    17.6320    12.8050 o          1 L73      -0.841831
      4 C2          40.7700    16.2190    13.9140 c3         1 L73      -0.387754
      5 O3          42.0930    15.7290    13.7430 os         1 L73      -0.225253
      6 C3          42.5150    14.9210    14.7390 cc         1 L73       0.209682
      7 C6          42.1860    13.5750    14.8670 cc         1 L73      -0.127514
      8 BR1         41.2070    12.6500    13.5170 br         1 L73      -0.157000
      9 C5          42.6250    12.9340    16.0150 cd         1 L73      -0.166409
     10 C8          42.3440    11.5880    16.4780 ca         1 L73       0.424276
     11 C9          43.3650    10.7570    16.9470 ca         1 L73      -0.239883
     12 C10         43.0860     9.4570    17.3660 ca         1 L73      -0.126863
     13 C11         41.7790     8.9720    17.3120 ca         1 L73      -0.333928
     14 C12         40.7400     9.7890    16.8450 ca         1 L73       0.548236
     15 OA          39.3980     9.3770    16.7740 os         1 L73      -0.446357
     16 CA          38.9980     7.9740    16.7120 c3         1 L73      -0.044662
     17 CG2         39.0450     7.4080    15.2990 ca         1 L73       0.250951
     18 CG3         40.2640     7.0600    14.7070 ca         1 L73      -0.384533
     19 CG4         40.2940     6.5240    13.4200 ca         1 L73       0.056693
     20 CG5         39.1060     6.3130    12.7240 ca         1 L73      -0.265862
     21 CG6         37.8880     6.6560    13.3070 ca         1 L73       0.056693
     22 CG7         37.8550     7.2050    14.5890 ca         1 L73      -0.384533
     23 C13         41.0350    11.0940    16.4480 ca         1 L73      -0.860879
     24 S1          43.6360    14.0250    16.9150 ss         1 L73      -0.137364
     25 C4          43.3650    15.3250    15.7670 cd         1 L73       0.001160
     26 C7          44.0490    16.6110    16.0380 c          1 L73       0.751669
     27 O4          43.8750    17.5610    15.2450 o          1 L73      -0.750636
     28 O5          44.7790    16.7150    17.0500 o          1 L73      -0.750636
     29 H2          40.7110    16.7970    14.8380 h1         1 L73       0.123853
     30 H1          40.0560    15.3980    13.9940 h1         1 L73       0.123853
     31 H3          44.3840    11.1150    16.9830 ha         1 L73       0.127828
     32 H4          43.8830     8.8270    17.7310 ha         1 L73       0.124287
     33 H5          41.5990     7.9600    17.6390 ha         1 L73       0.139896
     34 HA3         39.6600     7.3660    17.3290 h1         1 L73       0.089965
     35 HA1         37.9820     7.8640    17.0960 h1         1 L73       0.089965
     36 HG8         41.1900     7.2050    15.2440 ha         1 L73       0.170908
     37 HG9         41.2390     6.2690    12.9630 ha         1 L73       0.056624
     38 HG0         39.1290     5.8820    11.7340 ha         1 L73       0.139619
     39 HG1         36.9660     6.4950    12.7660 ha         1 L73       0.056624
     40 HG2         36.9060     7.4740    15.0300 ha         1 L73       0.170908
     41 H6          40.2310    11.7350    16.1160 ha         1 L73       0.638052
@<TRIPOS>BOND
     1     1     2 1   
     2     2     3 1   
     3     2     4 1   
     4     4     5 1   
     5     4    29 1   
     6     4    30 1   
     7     5     6 1   
     8     6     7 1   
     9     6    25 2   
    10     7     8 1   
    11     7     9 2   
    12     9    10 1   
    13     9    24 1   
    14    10    11 ar  
    15    10    23 ar  
    16    11    12 ar  
    17    11    31 1   
    18    12    13 ar  
    19    12    32 1   
    20    13    14 ar  
    21    13    33 1   
    22    14    15 1   
    23    14    23 ar  
    24    15    16 1   
    25    16    17 1   
    26    16    34 1   
    27    16    35 1   
    28    17    18 ar  
    29    17    22 ar  
    30    18    19 ar  
    31    18    36 1   
    32    19    20 ar  
    33    19    37 1   
    34    20    21 ar  
    35    20    38 1   
    36    21    22 ar  
    37    21    39 1   
    38    22    40 1   
    39    23    41 1   
    40    24    25 1   
    41    25    26 1   
    42    26    27 1   
    43    26    28 1   
@<TRIPOS>SUBSTRUCTURE
     1 L73         1 TEMP              0 ****  ****    0 ROOT
