@<TRIPOS>MOLECULE
L57
   47    50     1     0     0
SMALL
resp


@<TRIPOS>ATOM
      1 O1           3.5640   -47.6680     5.9790 o          1 L57      -0.790998
      2 C1           3.1060   -48.6750     6.5600 c          1 L57       0.892085
      3 O2           3.8450   -49.2910     7.3810 o          1 L57      -0.790998
      4 C2           1.6970   -49.0920     6.3190 cc         1 L57      -0.051732
      5 C3          -0.1530   -50.4340     6.3920 ca         1 L57       0.110311
      6 C4          -1.1210   -51.4550     6.5740 ca         1 L57      -0.245725
      7 C5          -2.4470   -51.2530     6.1510 ca         1 L57      -0.162294
      8 C6          -2.8080   -50.0290     5.5580 ca         1 L57      -0.235007
      9 C7          -1.8530   -49.0180     5.3760 ca         1 L57      -0.188923
     10 C8          -0.4990   -49.1920     5.7780 ca         1 L57       0.090028
     11 C9           0.6700   -48.3730     5.7220 cd         1 L57      -0.249584
     12 C10          0.7300   -46.9820     5.1520 c3         1 L57       0.162135
     13 C11          0.8230   -45.8720     6.2200 c3         1 L57      -0.081378
     14 C12         -0.3000   -45.9030     7.2640 c3         1 L57      -0.218855
     15 O3          -1.5340   -45.4790     6.6850 os         1 L57      -0.245888
     16 C13         -2.6540   -45.4730     7.4910 ca         1 L57       0.213910
     17 C14         -5.0020   -45.4170     9.0950 ca         1 L57      -0.395387
     18 C15         -3.8540   -46.0850     9.5450 ca         1 L57      -0.086123
     19 C16         -2.6940   -46.1090     8.7530 ca         1 L57      -0.287425
     20 H1          -0.8440   -52.3870     7.0350 ha         1 L57       0.140467
     21 H2          -3.1800   -52.0330     6.2920 ha         1 L57       0.122118
     22 H3          -3.8320   -49.8710     5.2450 ha         1 L57       0.131959
     23 H4          -2.1450   -48.0800     4.9230 ha         1 L57       0.163982
     24 H5          -0.1470   -46.7980     4.5310 hc         1 L57      -0.013971
     25 H6           1.5780   -46.8910     4.4710 hc         1 L57      -0.013971
     26 H7           0.8560   -44.8930     5.7360 hc         1 L57       0.077328
     27 H8           1.7720   -45.9690     6.7480 hc         1 L57       0.077328
     28 H9          -0.0340   -45.2380     8.0850 h1         1 L57       0.138352
     29 H10         -0.3790   -46.9090     7.6720 h1         1 L57       0.138352
     30 H11         -1.8360   -46.6350     9.1370 ha         1 L57       0.156063
     31 H12         -3.8630   -46.5750    10.5080 ha         1 L57       0.143304
     32 H13         -5.8880   -45.3960     9.7120 ha         1 L57       0.170808
     33 C17         -4.9930   -44.7820     7.8390 ca         1 L57       0.267763
     34 C18         -3.8240   -44.8120     7.0310 ca         1 L57       0.025182
     35 C19         -3.8420   -44.1740     5.7730 ca         1 L57      -0.208124
     36 C20         -5.0050   -43.5190     5.3210 ca         1 L57      -0.150670
     37 C21         -6.1590   -43.4920     6.1270 ca         1 L57      -0.125269
     38 C22         -6.1540   -44.1210     7.3840 ca         1 L57      -0.286845
     39 N1           1.1960   -50.3550     6.7090 na         1 L57      -0.034384
     40 H14         -2.9700   -44.1820     5.1360 ha         1 L57       0.159289
     41 H15         -5.0100   -43.0370     4.3540 ha         1 L57       0.131974
     42 H16         -7.0510   -42.9880     5.7770 ha         1 L57       0.130404
     43 H17         -7.0440   -44.0980     7.9960 ha         1 L57       0.150961
     44 CS1          1.9360   -51.4450     7.3370 c3         1 L57      -0.212944
     45 HS1          1.3190   -52.3380     7.4450 h1         1 L57       0.094131
     46 HS2          2.8010   -51.7100     6.7180 h1         1 L57       0.094131
     47 HS3          2.2780   -51.1420     8.3340 h1         1 L57       0.094131
@<TRIPOS>BOND
     1     1     2 1   
     2     2     3 1   
     3     2     4 1   
     4     4    11 2   
     5     4    39 1   
     6     5     6 ar  
     7     5    10 ar  
     8     5    39 1   
     9     6     7 ar  
    10     6    20 1   
    11     7     8 ar  
    12     7    21 1   
    13     8     9 ar  
    14     8    22 1   
    15     9    10 ar  
    16     9    23 1   
    17    10    11 1   
    18    11    12 1   
    19    12    13 1   
    20    12    24 1   
    21    12    25 1   
    22    13    14 1   
    23    13    26 1   
    24    13    27 1   
    25    14    15 1   
    26    14    28 1   
    27    14    29 1   
    28    15    16 1   
    29    16    19 ar  
    30    16    34 ar  
    31    17    18 ar  
    32    17    32 1   
    33    17    33 ar  
    34    18    19 ar  
    35    18    31 1   
    36    19    30 1   
    37    33    34 ar  
    38    33    38 ar  
    39    34    35 ar  
    40    35    36 ar  
    41    35    40 1   
    42    36    37 ar  
    43    36    41 1   
    44    37    38 ar  
    45    37    42 1   
    46    38    43 1   
    47    39    44 1   
    48    44    45 1   
    49    44    46 1   
    50    44    47 1   
@<TRIPOS>SUBSTRUCTURE
     1 L57         1 TEMP              0 ****  ****    0 ROOT
