@<TRIPOS>MOLECULE
L32
   54    57     1     0     0
SMALL
resp


@<TRIPOS>ATOM
      1  C1          1.3900    29.1080     6.7940 ca         1 L32       0.674823
      2  C2         -1.6910    31.9130     8.0790 cc         1 L32       0.330156
      3  C3         -0.7440    26.3750     8.8320 c3         1 L32       0.076327
      4  C4         -1.3140    25.5570     9.9910 c3         1 L32       0.007442
      5  C5         -1.1210    24.0590     9.6850 c3         1 L32      -0.028698
      6  C6         -1.5820    23.1790    10.8500 c3         1 L32      -0.057555
      7  C7         -0.8550    23.5460    12.1490 c3         1 L32       0.075008
      8  C8         -1.0780    25.0280    12.4860 c3         1 L32      -0.057555
      9  C9         -0.6320    25.9350    11.3270 c3         1 L32      -0.028698
     10  C10         4.6900    25.7130     5.8380 ca         1 L32       0.057793
     11  C11         4.6670    25.1390     7.1230 ca         1 L32      -0.348788
     12  C12         3.9500    25.7660     8.1580 ca         1 L32       0.316204
     13  C13         3.2460    26.9560     7.8980 ca         1 L32      -0.244537
     14  N1          0.6300    28.2310     7.4510 nb         1 L32      -0.540815
     15  C14        -0.4900    28.6250     8.0920 ca         1 L32       0.460092
     16  O1         -1.1800    27.7320     8.8830 os         1 L32      -0.284975
     17  C15        -0.8660    29.9820     8.0000 ca         1 L32       0.049963
     18  N2         -1.9250    30.7130     8.5210 nd         1 L32      -0.587790
     19  N3         -0.5540    32.0460     7.3310 na         1 L32      -0.600384
     20  C16        -0.0250    30.7860     7.2610 ca         1 L32       0.595869
     21  N4          1.1170    30.4050     6.6110 nb         1 L32      -0.756555
     22  N5          2.5830    28.6810     6.3360 nh         1 L32      -0.453193
     23  C17         3.2370    27.5250     6.6030 ca         1 L32       0.316015
     24  C18         3.9870    26.9070     5.5820 ca         1 L32      -0.433498
     25  H1         -2.3540    32.7340     8.2870 h5         1 L32       0.121844
     26  H2          0.3420    26.2810     8.8890 h1         1 L32       0.059196
     27  H3         -1.0530    25.9540     7.8730 h1         1 L32       0.059196
     28  H4         -2.3850    25.7540    10.0700 hc         1 L32       0.040211
     29  H5         -1.6740    23.7900     8.7850 hc         1 L32       0.019346
     30  H6         -0.0710    23.8530     9.4740 hc         1 L32       0.019346
     31  H7         -2.6490    23.3290    10.9950 hc         1 L32       0.015571
     32  H8         -1.4340    22.1250    10.6150 hc         1 L32       0.015571
     33  H9         -1.2180    22.9240    12.9680 hc         1 L32      -0.010537
     34  H10         0.2130    23.3450    12.0500 hc         1 L32      -0.010537
     35  H11        -2.1340    25.2030    12.7000 hc         1 L32       0.015571
     36  H12        -0.5350    25.2900    13.3930 hc         1 L32       0.015571
     37  H13         0.4520    25.8640    11.2220 hc         1 L32       0.019346
     38  H14        -0.8460    26.9770    11.5730 hc         1 L32       0.019346
     39  H15         5.2550    25.2430     5.0480 ha         1 L32       0.149201
     40  H17         2.7080    27.4240     8.7080 ha         1 L32       0.071445
     41  H18        -0.1780    32.8770     6.8850 hn         1 L32       0.408561
     42  H19         3.0170    29.2660     5.6330 hn         1 L32       0.319650
     43  H20         4.0230    27.3390     4.5930 ha         1 L32       0.198235
     44  S11         5.4310    23.8790     7.4000 sy         1 L32       1.213188
     45 O111         5.8110    23.2940     6.1200 o          1 L32      -0.569442
     46 O112         6.4230    24.1720     8.4270 o          1 L32      -0.569442
     47 NS11         4.3520    22.7430     8.1190 n3         1 L32      -0.921065
     48 OE12         3.9380    25.2280     9.4110 os         1 L32      -0.223061
     49 HNS1         3.7950    22.1530     7.5180 hn         1 L32       0.405267
     50 HNS2         4.2200    22.7630     9.1200 hn         1 L32       0.405267
     51  COE         3.1570    26.0270    10.2710 c3         1 L32      -0.144382
     52 HCE1         3.1540    25.5780    11.2960 h1         1 L32       0.106962
     53 HCE2         3.5900    27.0580    10.3170 h1         1 L32       0.106962
     54 HCE3         2.1090    26.0790     9.8830 h1         1 L32       0.106962
@<TRIPOS>BOND
     1     1    14 ar  
     2     1    21 ar  
     3     1    22 1   
     4     2    18 2   
     5     2    19 1   
     6     2    25 1   
     7     3     4 1   
     8     3    16 1   
     9     3    26 1   
    10     3    27 1   
    11     4     5 1   
    12     4     9 1   
    13     4    28 1   
    14     5     6 1   
    15     5    29 1   
    16     5    30 1   
    17     6     7 1   
    18     6    31 1   
    19     6    32 1   
    20     7     8 1   
    21     7    33 1   
    22     7    34 1   
    23     8     9 1   
    24     8    35 1   
    25     8    36 1   
    26     9    37 1   
    27     9    38 1   
    28    10    11 ar  
    29    10    24 ar  
    30    10    39 1   
    31    11    12 ar  
    32    11    44 1   
    33    12    13 ar  
    34    12    48 1   
    35    13    23 ar  
    36    13    40 1   
    37    14    15 ar  
    38    15    16 1   
    39    15    17 ar  
    40    17    18 1   
    41    17    20 ar  
    42    19    20 1   
    43    19    41 1   
    44    20    21 ar  
    45    22    23 1   
    46    22    42 1   
    47    23    24 ar  
    48    24    43 1   
    49    44    45 2   
    50    44    46 2   
    51    44    47 1   
    52    47    49 1   
    53    47    50 1   
    54    48    51 1   
    55    51    52 1   
    56    51    53 1   
    57    51    54 1   
@<TRIPOS>SUBSTRUCTURE
     1 L32         1 TEMP              0 ****  ****    0 ROOT
