@<TRIPOS>MOLECULE
L7I
   45    48     1     0     0
SMALL
resp


@<TRIPOS>ATOM
      1 CT1         15.2930     4.2920     1.0150 c3         1 L7I      -0.405965
      2 C13         15.2620     3.7480    -0.4000 ca         1 L7I      -0.041232
      3 C12         14.9080     4.5740    -1.4750 ca         1 L7I       0.286163
      4 N11         14.8940     4.1500    -2.7540 nb         1 L7I      -0.605222
      5 C10         15.2060     2.8610    -2.9970 ca         1 L7I       0.350295
      6 C9          15.5300     1.9160    -2.0030 cp         1 L7I      -0.211878
      7 C8          15.7500     0.4840    -2.3450 cp         1 L7I       0.015348
      8 C7          16.2880     0.1100    -3.5960 ca         1 L7I      -0.050533
      9 C6          16.4390    -1.2420    -3.9410 ca         1 L7I      -0.239663
     10 C5          15.9910    -2.2530    -3.0810 ca         1 L7I      -0.116430
     11 C4          15.4340    -1.9360    -1.8220 ca         1 L7I       0.173425
     12 C3          14.8690    -2.9890    -0.8320 c3         1 L7I      -0.229361
     13 CA1         15.1310    -4.5070    -0.9960 cx         1 L7I      -0.047361
     14 CA2         14.8280    -5.2740    -2.2580 cx         1 L7I      -0.262799
     15 CA3         16.2400    -5.2150    -1.7420 cx         1 L7I      -0.262799
     16 N3          15.2810    -2.6750     0.5320 nh         1 L7I      -0.655770
     17 C2          14.2360    -2.5140     1.3440 cz         1 L7I       0.835978
     18 N2          14.3830    -2.3700     2.6650 nh         1 L7I      -1.005851
     19 N1          13.0740    -2.5550     0.6740 n          1 L7I      -0.122877
     20 C1          11.7280    -2.4940     1.2590 c3         1 L7I      -0.266964
     21 C16         13.3510    -2.7950    -0.7030 c          1 L7I       0.558841
     22 O1          12.4940    -2.8960    -1.5870 o          1 L7I      -0.441977
     23 C15         15.3610    -0.5590    -1.4670 ca         1 L7I      -0.168771
     24 C14         15.5840     2.4020    -0.6760 ca         1 L7I      -0.009809
     25 HT1         14.4090     3.9660     1.5520 hc         1 L7I       0.129017
     26 HT2         16.1710     3.9460     1.5620 hc         1 L7I       0.129017
     27 HT3         15.3060     5.3820     1.0340 hc         1 L7I       0.129017
     28 H11         14.6630     5.6160    -1.3150 h4         1 L7I       0.087121
     29 H9          15.1110     2.5630    -4.0300 h4         1 L7I       0.052190
     30 H8          16.5890     0.8520    -4.3190 ha         1 L7I       0.145762
     31 H7          16.8750    -1.5230    -4.8870 ha         1 L7I       0.186632
     32 H6          16.0870    -3.2510    -3.4660 ha         1 L7I       0.165153
     33 HA1         14.8190    -5.0590    -0.1090 hc         1 L7I       0.152275
     34 HA2         14.2630    -6.1990    -2.1470 hc         1 L7I       0.153201
     35 HA3         14.5940    -4.6810    -3.1260 hc         1 L7I       0.153201
     36 HA4         16.9420    -4.6590    -2.3400 hc         1 L7I       0.153201
     37 HA5         16.6560    -6.1050    -1.2660 hc         1 L7I       0.153201
     38 H5          16.2580    -2.7100     0.8300 hn         1 L7I       0.459923
     39 H4          13.6310    -2.1090     3.3030 hn         1 L7I       0.488264
     40 H1          11.0150    -2.0180     0.5840 h1         1 L7I       0.149476
     41 H2          11.3730    -3.5010     1.4850 h1         1 L7I       0.149476
     42 H3          11.7560    -1.9450     2.1950 h1         1 L7I       0.149476
     43 H13         14.9120    -0.3030    -0.5170 ha         1 L7I       0.118234
     44 H12         15.8490     1.7410     0.1320 ha         1 L7I       0.133112
     45 H14         15.3270    -2.3620     3.0530 hn         1 L7I       0.488264
@<TRIPOS>BOND
     1     1     2 1   
     2     1    25 1   
     3     1    26 1   
     4     1    27 1   
     5     2     3 ar  
     6     2    24 ar  
     7     3     4 ar  
     8     3    28 1   
     9     4     5 ar  
    10     5     6 ar  
    11     5    29 1   
    12     6     7 1   
    13     6    24 ar  
    14     7     8 ar  
    15     7    23 ar  
    16     8     9 ar  
    17     8    30 1   
    18     9    10 ar  
    19     9    31 1   
    20    10    11 ar  
    21    10    32 1   
    22    11    12 1   
    23    11    23 ar  
    24    12    13 1   
    25    12    16 1   
    26    12    21 1   
    27    13    14 1   
    28    13    15 1   
    29    13    33 1   
    30    14    15 1   
    31    14    34 1   
    32    14    35 1   
    33    15    36 1   
    34    15    37 1   
    35    16    17 2   
    36    16    38 1   
    37    17    18 1   
    38    17    19 1   
    39    18    39 1   
    40    18    45 1   
    41    19    20 1   
    42    19    21 1   
    43    20    40 1   
    44    20    41 1   
    45    20    42 1   
    46    21    22 2   
    47    23    43 1   
    48    24    44 1   
@<TRIPOS>SUBSTRUCTURE
     1 L7I         1 TEMP              0 ****  ****    0 ROOT
