@<TRIPOS>MOLECULE
L4N
   46    49     1     0     0
SMALL
resp


@<TRIPOS>ATOM
      1 C1          11.6950    -2.1440     1.3060 c3         1 L4N      -0.250553
      2 N1          13.0020    -2.3990     0.7000 n          1 L4N      -0.137987
      3 C2          14.1920    -2.4860     1.3200 cz         1 L4N       0.735989
      4 N2          14.4010    -2.3560     2.6350 nh         1 L4N      -0.967739
      5 N3          15.1810    -2.7370     0.4600 nh         1 L4N      -0.453797
      6 C3          14.6760    -2.9530    -0.8940 c3         1 L4N      -0.352392
      7 CO1         14.8450    -4.4630    -1.1960 ca         1 L4N       0.117592
      8 CO2         16.0870    -4.9310    -1.6680 ca         1 L4N      -0.157909
      9 CO3         16.3080    -6.2910    -1.9320 ca         1 L4N      -0.153583
     10 CO4         15.3010    -7.2310    -1.6610 ca         1 L4N      -0.079238
     11 CO5         14.0780    -6.8050    -1.1180 ca         1 L4N      -0.153583
     12 CO6         13.8520    -5.4360    -0.8930 ca         1 L4N      -0.157909
     13 C4          15.2710    -1.9270    -1.8920 ca         1 L4N       0.274542
     14 C5          15.7220    -2.2900    -3.1820 ca         1 L4N      -0.228250
     15 C6          16.2630    -1.3220    -4.0410 ca         1 L4N      -0.172670
     16 C7          16.2450     0.0370    -3.6850 ca         1 L4N      -0.056129
     17 C8          15.7220     0.4600    -2.4440 cp         1 L4N      -0.065397
     18 C9          15.5140     1.8980    -2.1460 cp         1 L4N      -0.162440
     19 C10         15.2250     2.8240    -3.1770 ca         1 L4N       0.404658
     20 N11         14.9110     4.1190    -2.9750 nb         1 L4N      -0.631499
     21 C12         14.8690     4.5740    -1.7090 ca         1 L4N       0.407418
     22 C13         15.1720     3.7660    -0.6030 ca         1 L4N      -0.294436
     23 CV1         15.1260     4.3200     0.7380 cg         1 L4N       0.377960
     24 NV1         15.0920     4.7630     1.8040 n1         1 L4N      -0.444607
     25 C14         15.5070     2.4170    -0.8300 ca         1 L4N       0.083973
     26 C15         15.3080    -0.5490    -1.5400 ca         1 L4N      -0.161470
     27 C16         13.1930    -2.6020    -0.6950 c          1 L4N       0.614297
     28 O1          12.2930    -2.5480    -1.5430 o          1 L4N      -0.445986
     29 H1          11.3750    -1.1300     1.0630 h1         1 L4N       0.146699
     30 H2          10.9510    -2.8410     0.9210 h1         1 L4N       0.146699
     31 H3          11.7360    -2.2650     2.3860 h1         1 L4N       0.146699
     32 H4          15.3520    -2.4190     2.9990 hn         1 L4N       0.482416
     33 H5          16.1640    -2.8380     0.7120 hn         1 L4N       0.395409
     34 HO2         16.8740    -4.2220    -1.8420 ha         1 L4N       0.156276
     35 HO3         17.2610    -6.6010    -2.3270 ha         1 L4N       0.164851
     36 HO4         15.4670    -8.2800    -1.8380 ha         1 L4N       0.152922
     37 HO5         13.3210    -7.5360    -0.8630 ha         1 L4N       0.164851
     38 HO6         12.9020    -5.1790    -0.4570 ha         1 L4N       0.156276
     39 H6          15.6770    -3.3050    -3.5440 ha         1 L4N       0.202829
     40 H7          16.6580    -1.6220    -5.0020 ha         1 L4N       0.178935
     41 H8          16.6030     0.7570    -4.4050 ha         1 L4N       0.141370
     42 H9          15.1800     2.5040    -4.2060 h4         1 L4N       0.064571
     43 H11         14.5900     5.6110    -1.5790 h4         1 L4N       0.093574
     44 H12         15.7420     1.7790     0.0070 ha         1 L4N       0.138048
     45 H13         14.9210    -0.2490    -0.5790 ha         1 L4N       0.096304
     46 H14         13.6860    -2.0580     3.2950 hn         1 L4N       0.482416
@<TRIPOS>BOND
     1     1     2 1   
     2     1    29 1   
     3     1    30 1   
     4     1    31 1   
     5     2     3 2   
     6     2    27 1   
     7     3     4 1   
     8     3     5 1   
     9     4    32 1   
    10     4    46 1   
    11     5     6 1   
    12     5    33 1   
    13     6     7 1   
    14     6    13 1   
    15     6    27 1   
    16     7     8 ar  
    17     7    12 ar  
    18     8     9 ar  
    19     8    34 1   
    20     9    10 ar  
    21     9    35 1   
    22    10    11 ar  
    23    10    36 1   
    24    11    12 ar  
    25    11    37 1   
    26    12    38 1   
    27    13    14 ar  
    28    13    26 ar  
    29    14    15 ar  
    30    14    39 1   
    31    15    16 ar  
    32    15    40 1   
    33    16    17 ar  
    34    16    41 1   
    35    17    18 1   
    36    17    26 ar  
    37    18    19 ar  
    38    18    25 ar  
    39    19    20 ar  
    40    19    42 1   
    41    20    21 ar  
    42    21    22 ar  
    43    21    43 1   
    44    22    23 1   
    45    22    25 ar  
    46    23    24 3   
    47    25    44 1   
    48    26    45 1   
    49    27    28 2   
@<TRIPOS>SUBSTRUCTURE
     1 L4N         1 TEMP              0 ****  ****    0 ROOT
