@<TRIPOS>MOLECULE
L74
   48    50     1     0     0
SMALL
resp


@<TRIPOS>ATOM
      1 O1          39.1870    17.7320    12.9710 o          1 L74      -0.858619
      2 C1          40.3300    17.2260    12.9060 c          1 L74       0.921944
      3 O2          41.1480    17.4090    11.9780 o          1 L74      -0.858619
      4 C2          40.7700    16.2870    14.0320 c3         1 L74      -0.020168
      5 O3          42.0560    15.7410    13.7700 os         1 L74      -0.297388
      6 C3          42.5150    14.9210    14.7390 cc         1 L74       0.154002
      7 C6          42.1860    13.5750    14.8670 cc         1 L74      -0.072132
      8 BR1         41.1590    12.6660    13.5410 br         1 L74      -0.038971
      9 C5          42.6250    12.9340    16.0150 cd         1 L74      -0.058318
     10 C8          42.3440    11.5880    16.4780 ca         1 L74       0.083774
     11 C9          43.3650    10.7570    16.9470 ca         1 L74      -0.091674
     12 C10         43.0860     9.4570    17.3660 ca         1 L74      -0.237860
     13 C11         41.7790     8.9720    17.3120 ca         1 L74      -0.227557
     14 C12         40.7400     9.7890    16.8450 ca         1 L74       0.227716
     15 N1          39.4490     9.2410    16.7950 nh         1 L74      -0.722522
     16 CH1         39.1820     7.8310    17.0620 c3         1 L74       0.002888
     17 CH2         39.6690     6.9140    15.9440 c3         1 L74      -0.005288
     18 CH3         41.1880     7.0660    15.7650 c3         1 L74       0.106130
     19 CH4         41.7020     6.2020    14.6010 c3         1 L74      -0.238682
     20 CH5         40.9520     6.5200    13.2970 c3         1 L74       0.141606
     21 CH6         39.4320     6.3670    13.4760 c3         1 L74      -0.238682
     22 CH7         38.9190     7.2320    14.6400 c3         1 L74       0.106130
     23 C13         41.0350    11.0940    16.4480 ca         1 L74      -0.135060
     24 S1          43.6360    14.0250    16.9150 ss         1 L74      -0.162722
     25 C4          43.3650    15.3250    15.7670 cd         1 L74      -0.008656
     26 C7          44.0490    16.6110    16.0390 c          1 L74       0.774665
     27 O4          43.8780    17.5600    15.2430 o          1 L74      -0.750643
     28 O5          44.7770    16.7160    17.0510 o          1 L74      -0.750643
     29 H1          40.0440    15.4790    14.1330 h1         1 L74       0.042018
     30 H2          40.7670    16.8500    14.9670 h1         1 L74       0.042018
     31 H3          44.3830    11.1170    16.9920 ha         1 L74       0.117832
     32 H4          43.8820     8.8260    17.7340 ha         1 L74       0.142432
     33 H5          41.5760     7.9620    17.6360 ha         1 L74       0.164384
     34 HN2         38.7190     9.7740    16.3440 hn         1 L74       0.358369
     35 HH7         38.1330     7.6480    17.2930 h1         1 L74       0.063794
     36 HH8         39.7230     7.5860    17.9760 h1         1 L74       0.063794
     37 HH9         39.4370     5.8970    16.2610 hc         1 L74      -0.021986
     38 HH0         41.4320     8.1120    15.5790 hc         1 L74      -0.005752
     39 HH1         41.7010     6.7920    16.6870 hc         1 L74      -0.005752
     40 HH2         42.7710     6.3610    14.4640 hc         1 L74       0.044890
     41 HH3         41.5780     5.1470    14.8470 hc         1 L74       0.044890
     42 HH4         41.1830     7.5370    12.9800 hc         1 L74       0.001832
     43 HH5         41.3000     5.8640    12.4990 hc         1 L74       0.001832
     44 HH6         38.9190     6.6420    12.5550 hc         1 L74       0.044890
     45 HH7         39.1880     5.3210    13.6620 hc         1 L74       0.044890
     46 HH8         37.8490     7.0730    14.7780 hc         1 L74      -0.005752
     47 HH9         39.0420     8.2860    14.3940 hc         1 L74      -0.005752
     48 H6          40.2540    11.7470    16.0930 ha         1 L74       0.122476
@<TRIPOS>BOND
     1     1     2 1   
     2     2     3 1   
     3     2     4 1   
     4     4     5 1   
     5     4    29 1   
     6     4    30 1   
     7     5     6 1   
     8     6     7 1   
     9     6    25 2   
    10     7     8 1   
    11     7     9 2   
    12     9    10 1   
    13     9    24 1   
    14    10    11 ar  
    15    10    23 ar  
    16    11    12 ar  
    17    11    31 1   
    18    12    13 ar  
    19    12    32 1   
    20    13    14 ar  
    21    13    33 1   
    22    14    15 1   
    23    14    23 ar  
    24    15    16 1   
    25    15    34 1   
    26    16    17 1   
    27    16    35 1   
    28    16    36 1   
    29    17    18 1   
    30    17    22 1   
    31    17    37 1   
    32    18    19 1   
    33    18    38 1   
    34    18    39 1   
    35    19    20 1   
    36    19    40 1   
    37    19    41 1   
    38    20    21 1   
    39    20    42 1   
    40    20    43 1   
    41    21    22 1   
    42    21    44 1   
    43    21    45 1   
    44    22    46 1   
    45    22    47 1   
    46    23    48 1   
    47    24    25 1   
    48    25    26 1   
    49    26    27 1   
    50    26    28 1   
@<TRIPOS>SUBSTRUCTURE
     1 L74         1 TEMP              0 ****  ****    0 ROOT
