@<TRIPOS>MOLECULE
3FQ
   47    49     1     0     0
SMALL
resp


@<TRIPOS>ATOM
      1 C8           34.760     38.740     23.940 ca         1 3FQ       1.093434
      2 C10          35.250     37.470     21.640 ca         1 3FQ      -0.402517
      3 C11          35.530     36.740     20.410 cc         1 3FQ      -0.220647
      4 C15          35.020     36.740     22.820 ca         1 3FQ       0.505105
      5 C17          35.530     35.390     20.380 cd         1 3FQ       0.102606
      6 CR4          33.780     38.860     26.300 c3         1 3FQ       0.644829
      7 CR3          34.560     39.300     27.550 c3         1 3FQ      -0.708440
      8 CR1          31.280     36.720     25.640 c3         1 3FQ      -0.340906
      9 N2           35.040     35.300     22.750 n          1 3FQ      -0.161712
     10 CR2          32.300     39.310     26.390 c3         1 3FQ      -0.484382
     11 F2           37.870     37.000     14.660 f          1 3FQ      -0.212552
     12 C12          37.390     36.410     15.780 ca         1 3FQ       0.466860
     13 C13          36.110     35.830     15.780 ca         1 3FQ      -0.405527
     14 C14          35.600     35.250     16.960 ca         1 3FQ      -0.141103
     15 C5           38.170     36.400     16.950 ca         1 3FQ      -0.513969
     16 C7           37.660     35.830     18.140 ca         1 3FQ       0.380056
     17 F1           38.400     35.860     19.270 f          1 3FQ      -0.182376
     18 C18          36.370     35.250     18.140 ca         1 3FQ       0.140717
     19 O2           35.870     34.650     19.270 os         1 3FQ      -0.315314
     20 C6           35.170     34.610     21.580 c          1 3FQ       0.637804
     21 O3           34.990     33.390     21.520 o          1 3FQ      -0.559672
     22 C16          35.200     38.870     21.710 ca         1 3FQ       0.460970
     23 N1           34.970     39.510     22.880 nb         1 3FQ      -0.841014
     24 N3           34.770     37.400     23.970 nb         1 3FQ      -0.700237
     25 C19          34.840     34.550     24.000 c3         1 3FQ      -0.187725
     26 N4           34.420     39.400     25.110 nh         1 3FQ      -0.876037
     27 SR1          31.190     38.490     25.150 s6         1 3FQ       1.159468
     28 OR1          29.820     38.960     25.400 o          1 3FQ      -0.608828
     29 OR2          31.750     38.610     23.800 o          1 3FQ      -0.608828
     30 H11          35.780     37.330     19.540 ha         1 3FQ       0.166112
     31 HR6          33.810     37.780     26.270 h1         1 3FQ      -0.037601
     32 HR7          35.600     38.970     27.490 hc         1 3FQ       0.185715
     33 HR8          34.560     40.380     27.670 hc         1 3FQ       0.185715
     34 HR9          34.130     38.860     28.450 hc         1 3FQ       0.185715
     35 HR1          30.560     36.150     25.050 h1         1 3FQ       0.125664
     36 HR2          32.280     36.330     25.450 h1         1 3FQ       0.125664
     37 HR3          31.040     36.610     26.700 h1         1 3FQ       0.125664
     38 HR4          31.900     39.080     27.370 h1         1 3FQ       0.167342
     39 HR5          32.210     40.390     26.260 h1         1 3FQ       0.167342
     40 H12          35.510     35.840     14.890 ha         1 3FQ       0.218724
     41 H13          34.620     34.800     16.960 ha         1 3FQ       0.195782
     42 H9           39.150     36.850     16.960 ha         1 3FQ       0.248454
     43 H14          35.360     39.490     20.840 h4         1 3FQ       0.100588
     44 H15          35.270     33.550     23.970 h1         1 3FQ       0.103451
     45 H16          35.300     35.050     24.850 h1         1 3FQ       0.103451
     46 H17          33.770     34.450     24.200 h1         1 3FQ       0.103451
     47 H18          34.440     40.410     25.040 hn         1 3FQ       0.408703
@<TRIPOS>BOND
     1     1    23 ar  
     2     1    24 ar  
     3     1    26 1   
     4     2     3 1   
     5     2     4 ar  
     6     2    22 ar  
     7     3     5 2   
     8     3    30 1   
     9     4     9 1   
    10     4    24 ar  
    11     5    19 1   
    12     5    20 1   
    13     6     7 1   
    14     6    10 1   
    15     6    26 1   
    16     6    31 1   
    17     7    32 1   
    18     7    33 1   
    19     7    34 1   
    20     8    27 1   
    21     8    35 1   
    22     8    36 1   
    23     8    37 1   
    24     9    20 1   
    25     9    25 1   
    26    10    27 1   
    27    10    38 1   
    28    10    39 1   
    29    11    12 1   
    30    12    13 ar  
    31    12    15 ar  
    32    13    14 ar  
    33    13    40 1   
    34    14    18 ar  
    35    14    41 1   
    36    15    16 ar  
    37    15    42 1   
    38    16    17 1   
    39    16    18 ar  
    40    18    19 1   
    41    20    21 2   
    42    22    23 ar  
    43    22    43 1   
    44    25    44 1   
    45    25    45 1   
    46    25    46 1   
    47    26    47 1   
    48    27    28 2   
    49    27    29 2   
@<TRIPOS>SUBSTRUCTURE
     1 3FQ         1 TEMP              0 ****  ****    0 ROOT
