@<TRIPOS>MOLECULE
3FH
   46    49     1     0     0
SMALL
resp


@<TRIPOS>ATOM
      1 F2          38.1820    37.2780    14.6780 f          1 3FH      -0.211827
      2 C12         37.6120    36.6930    15.7560 ca         1 3FH       0.459756
      3 C13         36.3310    36.1230    15.6490 ca         1 3FH      -0.402745
      4 C14         35.7310    35.5280    16.7730 ca         1 3FH      -0.145968
      5 C5          38.2930    36.6630    16.9880 ca         1 3FH      -0.506034
      6 C7          37.6850    36.0890    18.1190 ca         1 3FH       0.372202
      7 F1          38.3240    36.1060    19.3120 f          1 3FH      -0.183612
      8 C18         36.3980    35.5160    18.0130 ca         1 3FH       0.152938
      9 O2          35.8110    34.8860    19.0800 os         1 3FH      -0.321085
     10 C17         35.2190    35.5980    20.0990 cc         1 3FH       0.104226
     11 C6          34.4800    34.7960    21.0800 c          1 3FH       0.645770
     12 O3          34.3270    33.5840    20.9220 o          1 3FH      -0.557889
     13 N2          33.9630    35.4460    22.1620 n          1 3FH      -0.185748
     14 C19         33.2520    34.6740    23.1960 c3         1 3FH      -0.184301
     15 C15         34.0490    36.8640    22.3390 ca         1 3FH       0.505054
     16 N3          33.5190    37.4800    23.4170 nb         1 3FH      -0.705369
     17 C11         35.3130    36.9420    20.2260 cd         1 3FH      -0.217545
     18 C10         34.7220    37.6300    21.3650 ca         1 3FH      -0.389330
     19 C16         34.8050    39.0230    21.5730 ca         1 3FH       0.445238
     20 N1          34.2840    39.6080    22.6740 nb         1 3FH      -0.833066
     21 C8          33.6690    38.7960    23.5370 ca         1 3FH       1.123546
     22 N4          33.1670    39.3730    24.6800 nh         1 3FH      -0.973120
     23 CZ3         32.3830    38.7480    25.7390 c3         1 3FH       0.692537
     24 CZ4         31.2840    39.7010    26.2140 c3         1 3FH      -0.652963
     25 CZ1         33.2810    38.2180    26.8790 c3         1 3FH      -0.516282
     26 NZ4         34.1190    39.2310    27.5030 na         1 3FH       0.848222
     27 NZ1         35.4200    39.3870    27.1860 nc         1 3FH      -0.633292
     28 CZ2         35.7280    40.3840    28.0000 cd         1 3FH       0.435147
     29 NZ2         34.6920    40.8110    28.7750 nd         1 3FH      -0.410532
     30 NZ3         33.6770    40.0720    28.4600 nc         1 3FH      -0.275143
     31 H12         35.8090    36.1400    14.7050 ha         1 3FH       0.218632
     32 H13         34.7580    35.0720    16.6860 ha         1 3FH       0.196403
     33 H9          39.2730    37.1080    17.0710 ha         1 3FH       0.247218
     34 H15         33.5090    35.0230    24.1970 h1         1 3FH       0.107969
     35 H16         32.1750    34.7910    23.0690 h1         1 3FH       0.107969
     36 H17         33.4770    33.6070    23.1940 h1         1 3FH       0.107969
     37 H11         35.8510    37.5520    19.5180 ha         1 3FH       0.163783
     38 H14         35.3120    39.6640    20.8680 h4         1 3FH       0.101498
     39 H18         33.3600    40.3590    24.7950 hn         1 3FH       0.415281
     40 HZ1         31.8690    37.8860    25.3120 h1         1 3FH       0.017016
     41 HZ2         30.6710    39.2420    26.9910 hc         1 3FH       0.166394
     42 HZ3         31.6920    40.6280    26.6120 hc         1 3FH       0.166394
     43 HZ4         30.6250    39.9570    25.3850 hc         1 3FH       0.166394
     44 HZ5         32.6660    37.7580    27.6540 h1         1 3FH       0.125115
     45 HZ6         33.9260    37.4260    26.4970 h1         1 3FH       0.125115
     46 HZ7         36.7180    40.8130    28.0370 h5         1 3FH       0.088064
@<TRIPOS>BOND
     1     1     2 1   
     2     2     3 ar  
     3     2     5 ar  
     4     3     4 ar  
     5     3    31 1   
     6     4     8 ar  
     7     4    32 1   
     8     5     6 ar  
     9     5    33 1   
    10     6     7 1   
    11     6     8 ar  
    12     8     9 1   
    13     9    10 1   
    14    10    11 1   
    15    10    17 2   
    16    11    12 2   
    17    11    13 1   
    18    13    14 1   
    19    13    15 1   
    20    14    34 1   
    21    14    35 1   
    22    14    36 1   
    23    15    16 ar  
    24    15    18 ar  
    25    16    21 ar  
    26    17    18 1   
    27    17    37 1   
    28    18    19 ar  
    29    19    20 ar  
    30    19    38 1   
    31    20    21 ar  
    32    21    22 1   
    33    22    23 1   
    34    22    39 1   
    35    23    24 1   
    36    23    25 1   
    37    23    40 1   
    38    24    41 1   
    39    24    42 1   
    40    24    43 1   
    41    25    26 1   
    42    25    44 1   
    43    25    45 1   
    44    26    27 1   
    45    26    30 1   
    46    27    28 2   
    47    28    29 1   
    48    28    46 1   
    49    29    30 2   
@<TRIPOS>SUBSTRUCTURE
     1 3FH         1 TEMP              0 ****  ****    0 ROOT
