@<TRIPOS>MOLECULE
L82
   50    52     1     0     0
SMALL
resp


@<TRIPOS>ATOM
      1  CR1        37.0780     3.6790    13.1300 c3         1 L82      -0.276721
      2  SR         37.0510     5.4590    12.6720 s6         1 L82       1.086265
      3  OR1        35.6550     5.9160    12.6060 o          1 L82      -0.573986
      4  OR2        37.9320     5.6290    11.5070 o          1 L82      -0.573986
      5  NK         37.7100     6.1240    13.8430 n3         1 L82      -0.349293
      6  CK3        36.9750     6.4540    15.0730 c3         1 L82       0.069840
      7  CK2        37.3500     7.8630    15.5710 c3         1 L82      -0.358859
      8  CK1        38.8800     8.0710    15.6820 c3         1 L82       0.539414
      9  N1         39.1730     9.4610    16.0230 nh         1 L82      -0.903868
     10  C12        40.4940     9.8790    16.2660 ca         1 L82       0.356373
     11  C11        41.4770     9.0400    16.8070 ca         1 L82      -0.294976
     12  C10        42.7730     9.5140    17.0060 ca         1 L82      -0.206368
     13  C9         43.0990    10.8230    16.6550 ca         1 L82      -0.075167
     14  C8         42.1340    11.6810    16.1190 ca         1 L82      -0.004355
     15  C5         42.4740    13.0430    15.7310 cc         1 L82       0.064090
     16  S1         43.4980    14.0500    16.7180 ss         1 L82      -0.171567
     17  C4         43.3220    15.4160    15.6300 cc         1 L82      -0.049005
     18  C7         44.0470    16.6550    16.0000 c          1 L82       0.783429
     19  O5         44.7300    16.6610    17.0480 o          1 L82      -0.749344
     20  O4         43.9570    17.6630    15.2630 o          1 L82      -0.749344
     21  C3         42.5070    15.0960    14.5540 cd         1 L82       0.210756
     22  O3         42.1800    15.9550    13.5600 os         1 L82      -0.293467
     23  C2         40.9450    16.6450    13.7340 c3         1 L82      -0.045236
     24  C1         40.4720    17.2780    12.4230 c          1 L82       0.918217
     25  O1         39.2380    17.3280    12.2240 o          1 L82      -0.852879
     26  O2         41.3520    17.7070    11.6450 o          1 L82      -0.852879
     27  C6         42.1050    13.7640    14.6030 cd         1 L82      -0.153284
     28  BR1        41.1290    12.9990    13.1540 br         1 L82      -0.055330
     29  C13        40.8300    11.1970    15.9490 ca         1 L82      -0.193766
     30  CK5        39.5890     7.6410    14.3720 c3         1 L82      -0.358859
     31  CK4        39.1750     6.2320    13.9220 c3         1 L82       0.069840
     32  HR1        36.4460     3.5060    14.0000 h1         1 L82       0.100007
     33  HR2        36.7020     3.0890    12.2950 h1         1 L82       0.100007
     34  HR3        38.1010     3.3770    13.3530 h1         1 L82       0.100007
     35 HK32        35.9100     6.3730    14.8510 h1         1 L82       0.052104
     36 HK31        37.1780     5.7010    15.8340 h1         1 L82       0.052104
     37 HK22        36.9230     8.6170    14.9100 hc         1 L82       0.129487
     38 HK21        36.8990     8.0310    16.5500 hc         1 L82       0.129487
     39 HK11        38.9940     7.5180    16.2720 h1         1 L82      -0.013703
     40  HN2        38.3820    10.0880    16.0650 hn         1 L82       0.375762
     41  H5         41.2690     8.0210    17.0830 ha         1 L82       0.164257
     42  H4         43.5240     8.8640    17.4300 ha         1 L82       0.143484
     43  H3         44.1120    11.1720    16.7950 ha         1 L82       0.115783
     44  H1         40.1660    15.9920    14.1320 h1         1 L82       0.050709
     45  H2         41.0940    17.4320    14.4730 h1         1 L82       0.050709
     46  H6         40.0670    11.8610    15.5680 ha         1 L82       0.130930
     47 HK52        39.3780     8.3590    13.5790 hc         1 L82       0.129487
     48 HK51        40.6680     7.6670    14.5210 hc         1 L82       0.129487
     49 HK41        39.5620     5.4720    14.6010 h1         1 L82       0.052104
     50 HK42        39.5770     5.9850    12.9390 h1         1 L82       0.052104
@<TRIPOS>BOND
     1     1     2 1   
     2     1    32 1   
     3     1    33 1   
     4     1    34 1   
     5     2     3 2   
     6     2     4 2   
     7     2     5 1   
     8     5     6 1   
     9     5    31 1   
    10     6     7 1   
    11     6    35 1   
    12     6    36 1   
    13     7     8 1   
    14     7    37 1   
    15     7    38 1   
    16     8     9 1   
    17     8    30 1   
    18     8    39 1   
    19     9    10 1   
    20     9    40 1   
    21    10    11 ar  
    22    10    29 ar  
    23    11    12 ar  
    24    11    41 1   
    25    12    13 ar  
    26    12    42 1   
    27    13    14 ar  
    28    13    43 1   
    29    14    15 1   
    30    14    29 ar  
    31    15    16 1   
    32    15    27 2   
    33    16    17 1   
    34    17    18 1   
    35    17    21 2   
    36    18    19 1   
    37    18    20 1   
    38    21    22 1   
    39    21    27 1   
    40    22    23 1   
    41    23    24 1   
    42    23    44 1   
    43    23    45 1   
    44    24    25 1   
    45    24    26 1   
    46    27    28 1   
    47    29    46 1   
    48    30    31 1   
    49    30    47 1   
    50    30    48 1   
    51    31    49 1   
    52    31    50 1   
@<TRIPOS>SUBSTRUCTURE
     1 L82         1 TEMP              0 ****  ****    0 ROOT
