@<TRIPOS>MOLECULE
L3I
   46    49     1     0     0
SMALL
resp


@<TRIPOS>ATOM
      1 C1          11.7070    -2.3240     1.1520 c3         1 L3I      -0.352064
      2 N1          13.0800    -2.5320     0.6750 n          1 L3I      -0.260998
      3 C2          14.2030    -2.4300     1.3980 cz         1 L3I       0.901326
      4 N2          14.2890    -2.2310     2.7110 nh         1 L3I      -1.028891
      5 N3          15.2910    -2.5890     0.6540 nh         1 L3I      -0.671309
      6 C3          14.9790    -2.9820    -0.7080 c3         1 L3I      -0.088529
      7 CH1         15.4750    -4.4510    -0.8100 c3         1 L3I      -0.203287
      8 CH2         15.0160    -5.2710    -1.9950 cx         1 L3I       0.027142
      9 CH3         16.0510    -5.9030    -2.8810 cx         1 L3I      -0.380189
     10 CH4         15.1860    -6.7770    -2.0220 cx         1 L3I      -0.380189
     11 C4          15.5530    -1.9670    -1.7160 ca         1 L3I       0.026051
     12 C5          16.2220    -2.3570    -2.8990 ca         1 L3I      -0.170303
     13 C6          16.6510    -1.3900    -3.8240 ca         1 L3I      -0.148936
     14 C7          16.4180    -0.0250    -3.5810 ca         1 L3I      -0.123901
     15 C8          15.8040     0.4090    -2.3880 cp         1 L3I       0.063834
     16 C9          15.5510     1.8450    -2.1200 cp         1 L3I      -0.004128
     17 C10         15.2560     2.7420    -3.1740 ca         1 L3I      -0.121916
     18 C11         14.9250     4.0880    -2.9140 ca         1 L3I      -0.207816
     19 C12         14.8970     4.5660    -1.5930 ca         1 L3I      -0.016552
     20 C13         15.2240     3.7030    -0.5360 ca         1 L3I      -0.048558
     21 CL1         15.2030     4.2950     1.0850 cl         1 L3I      -0.096783
     22 C14         15.5510     2.3580    -0.8010 ca         1 L3I      -0.023845
     23 C15         15.3870    -0.5810    -1.4700 ca         1 L3I      -0.173322
     24 C16         13.4410    -2.8720    -0.6620 c          1 L3I       0.758288
     25 O1          12.6320    -3.0300    -1.5820 o          1 L3I      -0.486280
     26 H1          11.6040    -2.6350     2.1920 h1         1 L3I       0.175544
     27 H2          11.4530    -1.2670     1.0810 h1         1 L3I       0.175544
     28 H3          10.9880    -2.8880     0.5560 h1         1 L3I       0.175544
     29 H4          13.5000    -2.0140     3.3170 hn         1 L3I       0.493599
     30 H5          16.2490    -2.5890     1.0090 hn         1 L3I       0.436196
     31 HH1         15.1580    -4.9960     0.0810 hc         1 L3I       0.117303
     32 HH2         16.5650    -4.4620    -0.7700 hc         1 L3I       0.117303
     33 HH3         14.1140    -4.9160    -2.4840 hc         1 L3I       0.128161
     34 HH4         15.8390    -5.7720    -3.9330 hc         1 L3I       0.182678
     35 HH5         17.0970    -5.8250    -2.6000 hc         1 L3I       0.182678
     36 HH6         15.6530    -7.2540    -1.1620 hc         1 L3I       0.182678
     37 HH7         14.4210    -7.3680    -2.5220 hc         1 L3I       0.182678
     38 H6          16.4110    -3.3880    -3.1400 ha         1 L3I       0.154834
     39 H7          17.1460    -1.6960    -4.7370 ha         1 L3I       0.165134
     40 H8          16.7200     0.6930    -4.3260 ha         1 L3I       0.149999
     41 H9          15.2350     2.3870    -4.1940 ha         1 L3I       0.143336
     42 H10         14.6630     4.7530    -3.7240 ha         1 L3I       0.173945
     43 H11         14.6220     5.5910    -1.3890 ha         1 L3I       0.138441
     44 H12         15.7970     1.7150     0.0270 ha         1 L3I       0.096786
     45 H13         14.8790    -0.2620    -0.5740 ha         1 L3I       0.145175
     46 H14         15.2060    -2.2090     3.1540 hn         1 L3I       0.493599
@<TRIPOS>BOND
     1     1     2 1   
     2     1    26 1   
     3     1    27 1   
     4     1    28 1   
     5     2     3 2   
     6     2    24 1   
     7     3     4 1   
     8     3     5 1   
     9     4    29 1   
    10     4    46 1   
    11     5     6 1   
    12     5    30 1   
    13     6     7 1   
    14     6    11 1   
    15     6    24 1   
    16     7     8 1   
    17     7    31 1   
    18     7    32 1   
    19     8     9 1   
    20     8    10 1   
    21     8    33 1   
    22     9    10 1   
    23     9    34 1   
    24     9    35 1   
    25    10    36 1   
    26    10    37 1   
    27    11    12 ar  
    28    11    23 ar  
    29    12    13 ar  
    30    12    38 1   
    31    13    14 ar  
    32    13    39 1   
    33    14    15 ar  
    34    14    40 1   
    35    15    16 1   
    36    15    23 ar  
    37    16    17 ar  
    38    16    22 ar  
    39    17    18 ar  
    40    17    41 1   
    41    18    19 ar  
    42    18    42 1   
    43    19    20 ar  
    44    19    43 1   
    45    20    21 1   
    46    20    22 ar  
    47    22    44 1   
    48    23    45 1   
    49    24    25 2   
@<TRIPOS>SUBSTRUCTURE
     1 L3I         1 TEMP              0 ****  ****    0 ROOT
