@<TRIPOS>MOLECULE
L68
   37    38     1     0     0
SMALL
resp


@<TRIPOS>ATOM
      1 CB1         37.3040     6.0210    14.7780 c3         1 L68      -0.209310
      2 CB2         37.5440     7.3860    15.4420 c3         1 L68      -0.028702
      3 CB          39.0110     7.6230    15.8170 c          1 L68       0.783189
      4 OB          39.7630     6.6640    15.9920 o          1 L68      -0.626071
      5 N1          39.3850     8.9130    15.9020 n          1 L68      -0.675255
      6 C12         40.6710     9.4520    16.1790 ca         1 L68       0.319487
      7 C11         41.6980     8.7040    16.7850 ca         1 L68      -0.228992
      8 C10         42.9340     9.3140    17.0710 ca         1 L68      -0.244335
      9 C9          43.1410    10.6700    16.7520 ca         1 L68      -0.060382
     10 C8          42.1180    11.4320    16.1450 ca         1 L68       0.046593
     11 C5          42.3320    12.8380    15.8150 cc         1 L68       0.049755
     12 S1          43.1850    13.8570    16.9460 ss         1 L68      -0.150058
     13 C4          43.0170    15.2590    15.9040 cc         1 L68      -0.089028
     14 C7          43.6040    16.5280    16.3930 c          1 L68       0.795360
     15 O4          43.5030    17.5480    15.6780 o          1 L68      -0.752867
     16 O5          44.1830    16.5490    17.5020 o          1 L68      -0.752867
     17 C3          42.3340    14.9440    14.7510 cd         1 L68       0.273442
     18 O3          42.0630    15.8260    13.7650 os         1 L68      -0.309519
     19 C2          40.9040    16.6160    13.9940 c3         1 L68      -0.024827
     20 C1          40.4220    17.2720    12.6980 c          1 L68       0.908534
     21 O2          41.2810    17.6280    11.8610 o          1 L68      -0.850269
     22 O1          39.1850    17.3900    12.5560 o          1 L68      -0.850269
     23 C6          41.9620    13.5670    14.7150 cd         1 L68      -0.195567
     24 BR1         40.9940    12.8290    13.2470 br         1 L68      -0.061821
     25 C13         40.8830    10.8090    15.8610 ca         1 L68      -0.300910
     26 HB1         36.2430     5.8730    14.5740 hc         1 L68       0.052626
     27 HB2         37.8350     5.9380    13.8290 hc         1 L68       0.052626
     28 HB3         37.6330     5.2030    15.4210 hc         1 L68       0.052626
     29 HB4         37.2250     8.1840    14.7700 hc         1 L68       0.026911
     30 HB5         36.9240     7.4620    16.3360 hc         1 L68       0.026911
     31 HN2         38.6700     9.5920    15.6840 hn         1 L68       0.294126
     32 H5          41.5610     7.6680    17.0530 ha         1 L68       0.177438
     33 H4          43.7200     8.7430    17.5420 ha         1 L68       0.151587
     34 H3          44.0900    11.1290    16.9870 ha         1 L68       0.108562
     35 H1          40.0890    16.0100    14.3930 h1         1 L68       0.042240
     36 H2          41.1300    17.3890    14.7290 h1         1 L68       0.042240
     37 H6          40.0920    11.3710    15.3850 ha         1 L68       0.206797
@<TRIPOS>BOND
     1     1     2 1   
     2     1    26 1   
     3     1    27 1   
     4     1    28 1   
     5     2     3 1   
     6     2    29 1   
     7     2    30 1   
     8     3     4 2   
     9     3     5 1   
    10     5     6 1   
    11     5    31 1   
    12     6     7 ar  
    13     6    25 ar  
    14     7     8 ar  
    15     7    32 1   
    16     8     9 ar  
    17     8    33 1   
    18     9    10 ar  
    19     9    34 1   
    20    10    11 1   
    21    10    25 ar  
    22    11    12 1   
    23    11    23 2   
    24    12    13 1   
    25    13    14 1   
    26    13    17 2   
    27    14    15 1   
    28    14    16 1   
    29    17    18 1   
    30    17    23 1   
    31    18    19 1   
    32    19    20 1   
    33    19    35 1   
    34    19    36 1   
    35    20    21 1   
    36    20    22 1   
    37    23    24 1   
    38    25    37 1   
@<TRIPOS>SUBSTRUCTURE
     1 L68         1 TEMP              0 ****  ****    0 ROOT
