@<TRIPOS>MOLECULE
L66
   29    30     1     0     0
SMALL
resp


@<TRIPOS>ATOM
      1 N1          39.2140     9.0770    15.8610 nh         1 L66      -0.903297
      2 C12         40.4830     9.5700    16.1590 ca         1 L66       0.313649
      3 C11         41.4810     8.7320    16.6730 ca         1 L66      -0.259887
      4 C10         42.7510     9.2420    16.9420 ca         1 L66      -0.244029
      5 C9          43.0420    10.5800    16.6710 ca         1 L66      -0.059412
      6 C8          42.0580    11.4350    16.1600 ca         1 L66      -0.004420
      7 C5          42.3470    12.8250    15.8290 cc         1 L66       0.072129
      8 S1          43.4370    13.7820    16.8010 ss         1 L66      -0.143355
      9 C4          43.2080    15.1990    15.7940 cc         1 L66      -0.118392
     10 C7          43.9540    16.4190    16.1790 c          1 L66       0.804373
     11 O4          43.8120    17.4510    15.4870 o          1 L66      -0.755763
     12 O5          44.7040    16.3890    17.1810 o          1 L66      -0.755763
     13 C3          42.3250    14.9330    14.7530 cd         1 L66       0.309456
     14 O3          41.9650    15.8350    13.8150 os         1 L66      -0.316179
     15 C2          40.7720    16.5450    14.1200 c3         1 L66      -0.024057
     16 C1          40.4160    17.5290    13.0030 c          1 L66       0.918260
     17 O1          39.4250    18.2760    13.1670 o          1 L66      -0.854215
     18 O2          41.1620    17.5310    11.9990 o          1 L66      -0.854215
     19 C6          41.8780    13.6140    14.7800 cd         1 L66      -0.217048
     20 BR1         40.7110    12.9630    13.4190 br         1 L66      -0.080184
     21 C13         40.7760    10.9160    15.9500 ca         1 L66      -0.195435
     22 HN1         38.9880     8.0990    15.9710 hn         1 L66       0.354411
     23 HN2         38.5000     9.6680    15.4570 hn         1 L66       0.354411
     24 H5          41.2760     7.6880    16.8620 ha         1 L66       0.149906
     25 H4          43.5120     8.6000    17.3610 ha         1 L66       0.150705
     26 H3          44.0400    10.9500    16.8550 ha         1 L66       0.102420
     27 H1          39.9330    15.8610    14.2530 h1         1 L66       0.039992
     28 H2          40.9030    17.0910    15.0550 h1         1 L66       0.039992
     29 H6          39.9960    11.5860    15.6200 ha         1 L66       0.175947
@<TRIPOS>BOND
     1     1     2 1   
     2     1    22 1   
     3     1    23 1   
     4     2     3 ar  
     5     2    21 ar  
     6     3     4 ar  
     7     3    24 1   
     8     4     5 ar  
     9     4    25 1   
    10     5     6 ar  
    11     5    26 1   
    12     6     7 1   
    13     6    21 ar  
    14     7     8 1   
    15     7    19 2   
    16     8     9 1   
    17     9    10 1   
    18     9    13 2   
    19    10    11 1   
    20    10    12 1   
    21    13    14 1   
    22    13    19 1   
    23    14    15 1   
    24    15    16 1   
    25    15    27 1   
    26    15    28 1   
    27    16    17 1   
    28    16    18 1   
    29    19    20 1   
    30    21    29 1   
@<TRIPOS>SUBSTRUCTURE
     1 L66         1 TEMP              0 ****  ****    0 ROOT
