@<TRIPOS>MOLECULE
2BB
   44    46     1     0     0
SMALL
resp


@<TRIPOS>ATOM
      1 C5           38.260     36.710     17.010 ca         1 2BB      -0.513317
      2 C6           34.540     34.970     21.180 c          1 2BB       0.666376
      3 C7           37.590     36.180     18.130 ca         1 2BB       0.380091
      4 C8           34.040     38.970     23.730 ca         1 2BB       0.990049
      5 C9           33.150     38.920     26.130 c3         1 2BB       0.226058
      6 C10          34.800     37.810     21.440 ca         1 2BB      -0.397906
      7 C11          35.250     37.120     20.230 cc         1 2BB      -0.229150
      8 C12          37.620     36.740     15.750 ca         1 2BB       0.467257
      9 C13          36.320     36.210     15.620 ca         1 2BB      -0.408911
     10 C14          35.670     35.660     16.740 ca         1 2BB      -0.139552
     11 C15          34.300     37.030     22.510 ca         1 2BB       0.462088
     12 C16          34.850     39.200     21.610 ca         1 2BB       0.502269
     13 C17          35.160     35.780     20.120 cd         1 2BB       0.114471
     14 C18          36.290     35.660     18.000 ca         1 2BB       0.147557
     15 C19          33.660     34.830     23.460 c3         1 2BB      -0.277973
     16 F1           38.190     36.190     19.320 f          1 2BB      -0.185734
     17 O2           35.650     35.060     19.050 os         1 2BB      -0.325314
     18 N1           34.470     39.790     22.770 nb         1 2BB      -0.867660
     19 O3           34.320     33.770     21.020 o          1 2BB      -0.562799
     20 N2           34.210     35.610     22.340 n          1 2BB      -0.186233
     21 N3           33.930     37.650     23.650 nb         1 2BB      -0.574819
     22 N4           33.670     39.560     24.920 nh         1 2BB      -0.740891
     23 CP1          33.670     39.650     27.340 c3         1 2BB      -0.338450
     24 CP2          33.550     39.580     30.040 c3         1 2BB      -0.501069
     25 H9           39.250     37.110     17.110 ha         1 2BB       0.248062
     26 HP1          33.480     37.890     26.150 h1         1 2BB       0.050590
     27 H11          35.700     37.730     19.460 ha         1 2BB       0.162788
     28 H12          35.830     36.220     14.660 ha         1 2BB       0.219689
     29 H13          34.690     35.230     16.620 ha         1 2BB       0.196291
     30 H14          35.210     39.850     20.830 h4         1 2BB       0.088366
     31 H15          34.050     35.180     24.410 h1         1 2BB       0.132705
     32 H16          32.580     34.910     23.480 h1         1 2BB       0.132705
     33 H17          33.920     33.770     23.420 h1         1 2BB       0.132705
     34 H18          33.790     40.560     24.970 hn         1 2BB       0.397536
     35 H10          32.060     38.960     26.120 h1         1 2BB       0.050590
     36 HP2          34.760     39.610     27.340 h1         1 2BB       0.119042
     37 HP3          33.340     40.690     27.310 h1         1 2BB       0.119042
     38 HP4          34.630     39.490     30.070 h1         1 2BB       0.176500
     39 HP5          33.270     40.630     29.970 h1         1 2BB       0.176500
     40 HP6          33.120     39.140     30.940 h1         1 2BB       0.176500
     41 F2           38.230     37.270     14.700 f          1 2BB      -0.213078
     42 SP1          33.020     38.850     28.840 s6         1 2BB       1.124492
     43 OP1          31.550     38.990     28.830 o          1 2BB      -0.598731
     44 OP2          33.550     37.460     28.880 o          1 2BB      -0.598731
@<TRIPOS>BOND
     1     1     3 ar  
     2     1     8 ar  
     3     1    25 1   
     4     2    13 1   
     5     2    19 2   
     6     2    20 1   
     7     3    14 ar  
     8     3    16 1   
     9     4    18 ar  
    10     4    21 ar  
    11     4    22 1   
    12     5    22 1   
    13     5    23 1   
    14     5    26 1   
    15     5    35 1   
    16     6     7 1   
    17     6    11 ar  
    18     6    12 ar  
    19     7    13 2   
    20     7    27 1   
    21     8     9 ar  
    22     8    41 1   
    23     9    10 ar  
    24     9    28 1   
    25    10    14 ar  
    26    10    29 1   
    27    11    20 1   
    28    11    21 ar  
    29    12    18 ar  
    30    12    30 1   
    31    13    17 1   
    32    14    17 1   
    33    15    20 1   
    34    15    31 1   
    35    15    32 1   
    36    15    33 1   
    37    22    34 1   
    38    23    36 1   
    39    23    37 1   
    40    23    42 1   
    41    24    38 1   
    42    24    39 1   
    43    24    40 1   
    44    24    42 1   
    45    42    43 2   
    46    42    44 2   
@<TRIPOS>SUBSTRUCTURE
     1 2BB         1 TEMP              0 ****  ****    0 ROOT
