@<TRIPOS>MOLECULE
L45
   48    51     1     0     0
SMALL
resp


@<TRIPOS>ATOM
      1 O1           3.4850   -49.9430     7.0280 o          1 L45      -0.795992
      2 C1           2.8120   -48.9260     6.7500 c          1 L45       0.874828
      3 O2           3.3390   -47.7910     6.7250 o          1 L45      -0.795992
      4 C2           1.3660   -49.0980     6.4620 cc         1 L45       0.041025
      5 C3          -0.4570   -50.4270     6.2250 ca         1 L45       0.363548
      6 C4          -1.3770   -51.4930     6.1600 ca         1 L45      -0.388331
      7 C5          -2.7280   -51.2250     5.8400 ca         1 L45      -0.103937
      8 C6          -3.1250   -49.8960     5.5730 ca         1 L45      -0.277507
      9 C7          -2.1900   -48.8430     5.6380 ca         1 L45      -0.174547
     10 C8          -0.8350   -49.0780     5.9740 ca         1 L45       0.029655
     11 C9           0.3360   -48.2450     6.1280 cd         1 L45      -0.198566
     12 C10          0.4040   -46.7610     5.9390 c3         1 L45       0.116448
     13 C11          0.3100   -45.9590     7.2520 c3         1 L45      -0.017441
     14 C12         -1.0290   -46.0970     7.9990 c3         1 L45      -0.219335
     15 O3          -2.0790   -45.5600     7.1980 os         1 L45      -0.239195
     16 C13         -3.3470   -45.4670     7.7380 ca         1 L45       0.239772
     17 C14         -5.9800   -45.1890     8.7400 ca         1 L45      -0.325091
     18 C15         -4.9970   -45.8220     9.5180 ca         1 L45      -0.118404
     19 C16         -3.6870   -45.9650     9.0250 ca         1 L45      -0.281630
     20 H1          -1.0550   -52.5070     6.3620 ha         1 L45       0.175189
     21 H2          -3.4470   -52.0330     5.7980 ha         1 L45       0.116801
     22 H3          -4.1580   -49.6920     5.3190 ha         1 L45       0.138148
     23 H4          -2.5220   -47.8290     5.4350 ha         1 L45       0.163540
     24 H5          -0.3770   -46.4300     5.2570 hc         1 L45      -0.010597
     25 H6           1.3390   -46.5010     5.4410 hc         1 L45      -0.010597
     26 H7           0.4800   -44.9030     7.0310 hc         1 L45       0.051683
     27 H8           1.1240   -46.2550     7.9090 hc         1 L45       0.051683
     28 H9          -0.9540   -45.5410     8.9390 h1         1 L45       0.133428
     29 H10         -1.2200   -47.1410     8.2500 h1         1 L45       0.133428
     30 H11         -2.9570   -46.4540     9.6540 ha         1 L45       0.152877
     31 H12         -5.2480   -46.1920    10.5000 ha         1 L45       0.145876
     32 H13         -6.9810   -45.0770     9.1330 ha         1 L45       0.148667
     33 C17         -5.6700   -44.7030     7.4610 ca         1 L45       0.102788
     34 C18         -4.3510   -44.8400     6.9520 ca         1 L45      -0.119346
     35 CN1         -4.0010   -44.3410     5.5510 c3         1 L45       0.104163
     36 CN2         -5.0180   -43.3340     4.9870 c3         1 L45       0.014467
     37 CN3         -6.4490   -43.8370     5.1790 c3         1 L45      -0.003190
     38 CN4         -6.7720   -44.0160     6.6650 c3         1 L45      -0.016830
     39 N1           0.8790   -50.3880     6.5090 na         1 L45      -0.567195
     40 HN1         -3.9510   -45.2100     4.8940 hc         1 L45      -0.011913
     41 HN2         -3.0090   -43.8900     5.5410 hc         1 L45      -0.011913
     42 HN3         -4.8320   -43.1460     3.9290 hc         1 L45      -0.012853
     43 HN4         -4.9030   -42.3790     5.4990 hc         1 L45      -0.012853
     44 HN5         -6.5590   -44.7910     4.6610 hc         1 L45       0.000506
     45 HN6         -7.1630   -43.1520     4.7180 hc         1 L45       0.000506
     46 HN7         -6.9450   -43.0400     7.1160 hc         1 L45       0.014001
     47 HN8         -7.7010   -44.5760     6.7710 hc         1 L45       0.014001
     48 H            1.5080   -51.1530     6.7160 hn         1 L45       0.386227
@<TRIPOS>BOND
     1     1     2 1   
     2     2     3 1   
     3     2     4 1   
     4     4    11 2   
     5     4    39 1   
     6     5     6 ar  
     7     5    10 ar  
     8     5    39 1   
     9     6     7 ar  
    10     6    20 1   
    11     7     8 ar  
    12     7    21 1   
    13     8     9 ar  
    14     8    22 1   
    15     9    10 ar  
    16     9    23 1   
    17    10    11 1   
    18    11    12 1   
    19    12    13 1   
    20    12    24 1   
    21    12    25 1   
    22    13    14 1   
    23    13    26 1   
    24    13    27 1   
    25    14    15 1   
    26    14    28 1   
    27    14    29 1   
    28    15    16 1   
    29    16    19 ar  
    30    16    34 ar  
    31    17    18 ar  
    32    17    32 1   
    33    17    33 ar  
    34    18    19 ar  
    35    18    31 1   
    36    19    30 1   
    37    33    34 ar  
    38    33    38 1   
    39    34    35 1   
    40    35    36 1   
    41    35    40 1   
    42    35    41 1   
    43    36    37 1   
    44    36    42 1   
    45    36    43 1   
    46    37    38 1   
    47    37    44 1   
    48    37    45 1   
    49    38    46 1   
    50    38    47 1   
    51    39    48 1   
@<TRIPOS>SUBSTRUCTURE
     1 L45         1 TEMP              0 ****  ****    0 ROOT
