@<TRIPOS>MOLECULE
L4I
   45    48     1     0     0
SMALL
resp


@<TRIPOS>ATOM
      1 C1          11.6800    -2.2520     1.3710 c3         1 L4I      -0.246315
      2 N1          12.9870    -2.4650     0.7390 n          1 L4I      -0.138411
      3 C2          14.1850    -2.5410     1.3430 cz         1 L4I       0.738984
      4 N2          14.4080    -2.4160     2.6560 nh         1 L4I      -0.965531
      5 N3          15.1680    -2.7710     0.4650 nh         1 L4I      -0.478484
      6 C3          14.6500    -2.9660    -0.8910 c3         1 L4I      -0.385754
      7 CO1         14.8480    -4.4550    -1.2490 ca         1 L4I       0.121082
      8 CO2         13.8640    -5.4580    -1.0220 ca         1 L4I      -0.143241
      9 CO3         14.1120    -6.8050    -1.3510 ca         1 L4I      -0.162892
     10 CO4         15.3440    -7.1710    -1.9160 ca         1 L4I      -0.077572
     11 CO5         16.3450    -6.2030    -2.0970 ca         1 L4I      -0.162892
     12 CO6         16.1030    -4.8700    -1.7350 ca         1 L4I      -0.143241
     13 C4          15.2190    -1.9240    -1.8830 ca         1 L4I       0.364739
     14 C5          15.5980    -2.2560    -3.2070 ca         1 L4I      -0.278040
     15 C6          16.1190    -1.2730    -4.0620 ca         1 L4I      -0.122109
     16 C7          16.1730     0.0730    -3.6560 ca         1 L4I      -0.068717
     17 C8          15.7350     0.4620    -2.3710 cp         1 L4I      -0.208515
     18 C9          15.6380     1.8960    -1.9850 cp         1 L4I       0.754140
     19 C14         15.6690     2.3240    -0.6450 ca         1 L4I      -0.565277
     20 C13         15.3940     3.6640    -0.3350 ca         1 L4I       0.154225
     21 C12         15.0980     4.5440    -1.3840 ca         1 L4I      -0.434138
     22 C11         15.1360     4.0510    -2.6960 ca         1 L4I       0.368134
     23 NS1         15.4020     2.7640    -2.9930 nb         1 L4I      -0.663399
     24 C15         15.3180    -0.5640    -1.4870 ca         1 L4I      -0.218615
     25 C16         13.1640    -2.6420    -0.6620 c          1 L4I       0.621374
     26 O1          12.2500    -2.5950    -1.4960 o          1 L4I      -0.446783
     27 H1          11.7440    -2.3620     2.4530 h1         1 L4I       0.144484
     28 H2          11.3120    -1.2540     1.1300 h1         1 L4I       0.144484
     29 H3          10.9550    -2.9810     1.0090 h1         1 L4I       0.144484
     30 H4          15.3670    -2.4680     3.0040 hn         1 L4I       0.478810
     31 H5          16.1550    -2.8600     0.7040 hn         1 L4I       0.408262
     32 HO2         12.9020    -5.2400    -0.5860 ha         1 L4I       0.148530
     33 HO3         13.3540    -7.5590    -1.1780 ha         1 L4I       0.164572
     34 HO4         15.5210    -8.1950    -2.1990 ha         1 L4I       0.150910
     35 HO5         17.3020    -6.4670    -2.5160 ha         1 L4I       0.164572
     36 HO6         16.8780    -4.1350    -1.8690 ha         1 L4I       0.148530
     37 H6          15.5200    -3.2610    -3.5990 ha         1 L4I       0.201364
     38 H7          16.4500    -1.5560    -5.0470 ha         1 L4I       0.162937
     39 H8          16.5220     0.8210    -4.3560 ha         1 L4I       0.151147
     40 H12         15.8680     1.6240     0.1450 ha         1 L4I       0.197653
     41 H           15.3940     4.0060     0.6890 ha         1 L4I       0.121140
     42 H11         14.8560     5.5800    -1.1860 ha         1 L4I       0.193173
     43 H10         14.9280     4.7140    -3.5250 h4         1 L4I       0.075543
     44 H13         14.9880    -0.2840    -0.5000 ha         1 L4I       0.107844
     45 H14         13.7000    -2.1130     3.3230 hn         1 L4I       0.478810
@<TRIPOS>BOND
     1     1     2 1   
     2     1    27 1   
     3     1    28 1   
     4     1    29 1   
     5     2     3 2   
     6     2    25 1   
     7     3     4 1   
     8     3     5 1   
     9     4    30 1   
    10     4    45 1   
    11     5     6 1   
    12     5    31 1   
    13     6     7 1   
    14     6    13 1   
    15     6    25 1   
    16     7     8 ar  
    17     7    12 ar  
    18     8     9 ar  
    19     8    32 1   
    20     9    10 ar  
    21     9    33 1   
    22    10    11 ar  
    23    10    34 1   
    24    11    12 ar  
    25    11    35 1   
    26    12    36 1   
    27    13    14 ar  
    28    13    24 ar  
    29    14    15 ar  
    30    14    37 1   
    31    15    16 ar  
    32    15    38 1   
    33    16    17 ar  
    34    16    39 1   
    35    17    18 1   
    36    17    24 ar  
    37    18    19 ar  
    38    18    23 ar  
    39    19    20 ar  
    40    19    40 1   
    41    20    21 ar  
    42    20    41 1   
    43    21    22 ar  
    44    21    42 1   
    45    22    23 ar  
    46    22    43 1   
    47    24    44 1   
    48    25    26 2   
@<TRIPOS>SUBSTRUCTURE
     1 L4I         1 TEMP              0 ****  ****    0 ROOT
