@<TRIPOS>MOLECULE
L24
   47    50     1     0     0
SMALL
resp


@<TRIPOS>ATOM
      1 CW1         15.3150     5.5060     2.8950 c3         1 L24      -0.318598
      2 CW2         15.2760     4.6940     1.6710 c1         1 L24       0.159671
      3 CW3         15.2920     4.0730     0.6200 cg         1 L24      -0.421654
      4 C13         15.3510     3.4490    -0.6910 ca         1 L24       0.065436
      5 C12         15.1650     4.2390    -1.8340 ca         1 L24       0.309719
      6 N11         15.2380     3.7480    -3.0810 nb         1 L24      -0.620074
      7 C10         15.4740     2.4310    -3.2310 ca         1 L24       0.375542
      8 C9          15.6500     1.5170    -2.1650 cp         1 L24      -0.267191
      9 C8          15.8250     0.0640    -2.4270 cp         1 L24       0.034843
     10 C7          16.3440    -0.3780    -3.6610 ca         1 L24      -0.061157
     11 C6          16.4140    -1.7400    -3.9780 ca         1 L24      -0.238179
     12 C5          15.9410    -2.7040    -3.0750 ca         1 L24      -0.106121
     13 C4          15.4460    -2.3240    -1.8040 ca         1 L24       0.151095
     14 C3          14.8510    -3.3200    -0.7680 c3         1 L24      -0.202131
     15 CA1         15.0820    -4.8500    -0.8610 cx         1 L24      -0.073320
     16 CA2         14.8180    -5.7090    -2.0750 cx         1 L24      -0.264180
     17 CA3         16.2250    -5.5700    -1.5440 cx         1 L24      -0.264180
     18 N3          15.2660    -2.9520     0.5810 nh         1 L24      -0.641836
     19 C2          14.2390    -2.5910     1.3480 cz         1 L24       0.816079
     20 N2          14.3970    -2.2860     2.6380 nh         1 L24      -0.997470
     21 N1          13.0820    -2.6030     0.6690 n          1 L24      -0.117293
     22 C1          11.7630    -2.2010     1.1740 c3         1 L24      -0.262153
     23 C16         13.3390    -3.0540    -0.6600 c          1 L24       0.553717
     24 O1          12.4760    -3.1860    -1.5340 o          1 L24      -0.440573
     25 C15         15.4220    -0.9300    -1.5000 ca         1 L24      -0.161686
     26 C14         15.6010     2.0710    -0.8640 ca         1 L24       0.036233
     27 HW1         14.7230     6.4090     2.7700 hc         1 L24       0.129503
     28 HW2         14.9100     4.9400     3.7300 hc         1 L24       0.129503
     29 HW3         16.3440     5.7820     3.1250 hc         1 L24       0.129503
     30 H11         14.9640     5.2980    -1.7520 h4         1 L24       0.100820
     31 H9          15.4800     2.0980    -4.2570 h4         1 L24       0.055993
     32 H8          16.6790     0.3260    -4.4060 ha         1 L24       0.150420
     33 H7          16.8070    -2.0380    -4.9390 ha         1 L24       0.186557
     34 H6          15.9690    -3.7180    -3.4240 ha         1 L24       0.162517
     35 HA1         14.7740    -5.3360     0.0640 hc         1 L24       0.158228
     36 HA2         14.3150    -6.6620    -1.9190 hc         1 L24       0.155766
     37 HA3         14.5670    -5.2130    -3.0010 hc         1 L24       0.155766
     38 HA4         16.9320    -5.0170    -2.1450 hc         1 L24       0.155766
     39 HA5         16.6530    -6.4220    -1.0190 hc         1 L24       0.155766
     40 H5          16.2430    -2.9600     0.8790 hn         1 L24       0.457515
     41 H4          13.6500    -1.9780     3.2590 hn         1 L24       0.486965
     42 H1          10.9580    -2.6950     0.6300 h1         1 L24       0.147992
     43 H2          11.6590    -2.4480     2.2300 h1         1 L24       0.147992
     44 H3          11.6440    -1.1250     1.0540 h1         1 L24       0.147992
     45 H13         15.0150    -0.6040    -0.5540 ha         1 L24       0.114501
     46 H12         15.7570     1.4430    -0.0040 ha         1 L24       0.139432
     47 H14         15.3340    -2.3090     3.0440 hn         1 L24       0.486965
@<TRIPOS>BOND
     1     1     2 1   
     2     1    27 1   
     3     1    28 1   
     4     1    29 1   
     5     2     3 3   
     6     3     4 1   
     7     4     5 ar  
     8     4    26 ar  
     9     5     6 ar  
    10     5    30 1   
    11     6     7 ar  
    12     7     8 ar  
    13     7    31 1   
    14     8     9 1   
    15     8    26 ar  
    16     9    10 ar  
    17     9    25 ar  
    18    10    11 ar  
    19    10    32 1   
    20    11    12 ar  
    21    11    33 1   
    22    12    13 ar  
    23    12    34 1   
    24    13    14 1   
    25    13    25 ar  
    26    14    15 1   
    27    14    18 1   
    28    14    23 1   
    29    15    16 1   
    30    15    17 1   
    31    15    35 1   
    32    16    17 1   
    33    16    36 1   
    34    16    37 1   
    35    17    38 1   
    36    17    39 1   
    37    18    19 2   
    38    18    40 1   
    39    19    20 1   
    40    19    21 1   
    41    20    41 1   
    42    20    47 1   
    43    21    22 1   
    44    21    23 1   
    45    22    42 1   
    46    22    43 1   
    47    22    44 1   
    48    23    24 2   
    49    25    45 1   
    50    26    46 1   
@<TRIPOS>SUBSTRUCTURE
     1 L24         1 TEMP              0 ****  ****    0 ROOT
