@<TRIPOS>MOLECULE
L28
   41    42     1     0     0
SMALL
resp


@<TRIPOS>ATOM
      1  C1         23.9610    12.3160    30.2950 c3         1 L28      -0.347214
      2  C2         23.2560    10.9820    30.5540 c3         1 L28       0.412494
      3  O1         22.1040    11.2450    31.3510 os         1 L28      -0.459291
      4  C3         21.3110    10.1910    31.7750 ca         1 L28       0.908210
      5  N1         21.6910     8.9380    31.4090 nb         1 L28      -0.823118
      6  C4         20.9230     7.9050    31.7790 ca         1 L28       0.762923
      7  C5         19.7730     8.0450    32.5400 ca         1 L28      -0.829650
      8  C6         19.3900     9.3200    32.9190 ca         1 L28       0.793375
      9  N2         18.2230     9.3990    33.6690 nh         1 L28      -0.982961
     10  C7         20.1630    10.4310    32.5380 ca         1 L28      -0.709675
     11  C8         19.8170    11.8040    32.8910 cg         1 L28       0.519566
     12  N3         19.5530    12.8970    33.1660 n1         1 L28      -0.537086
     13  N4         21.4660     6.7160    31.3470 n          1 L28      -0.548728
     14  C9         20.9020     5.5220    31.1460 c          1 L28       0.790272
     15  O2         19.7010     5.3110    31.3000 o          1 L28      -0.617180
     16  C10        21.8100     4.3700    30.6810 c3         1 L28      -0.443346
     17  C11        23.2680     4.7660    30.3670 ca         1 L28       0.108266
     18  C16        24.3650     4.2250    31.0650 ca         1 L28       0.159319
     19 C161        24.1950     3.1870    32.1610 c3         1 L28      -0.370063
     20  C15        25.6600     4.6620    30.7690 ca         1 L28      -0.253431
     21  C14        25.8790     5.6250    29.7870 ca         1 L28      -0.123362
     22  C13        24.8020     6.1470    29.0790 ca         1 L28      -0.192876
     23  C12        23.5090     5.7100    29.3590 ca         1 L28      -0.183374
     24  H1         24.2590    12.7900    31.2290 hc         1 L28       0.093258
     25  H2         24.8530    12.1760    29.6860 hc         1 L28       0.093258
     26  H3         23.3010    13.0050    29.7670 hc         1 L28       0.093258
     27  H4         22.9670    10.5180    29.6080 h1         1 L28      -0.013403
     28  H5         23.9350    10.2990    31.0680 h1         1 L28      -0.013403
     29  H6         19.1890     7.1880    32.8320 ha         1 L28       0.311166
     30  H7         17.8430    10.3050    33.9320 hn         1 L28       0.434229
     31  H8         17.7720     8.5490    33.9950 hn         1 L28       0.434229
     32  H9         22.4450     6.8120    31.1370 hn         1 L28       0.276056
     33  H10        21.7440     3.5900    31.4370 hc         1 L28       0.149671
     34  H11        21.3670     3.9450    29.7840 hc         1 L28       0.149671
     35 H161        23.5760     2.3530    31.8280 hc         1 L28       0.113610
     36 H162        25.1500     2.7670    32.4780 hc         1 L28       0.113610
     37 H163        23.7380     3.6560    33.0280 hc         1 L28       0.113610
     38  H15        26.5070     4.2620    31.3080 ha         1 L28       0.165510
     39  H14        26.8830     5.9670    29.5750 ha         1 L28       0.148715
     40  H13        24.9760     6.8920    28.3170 ha         1 L28       0.158205
     41  H12        22.6790     6.1270    28.8050 ha         1 L28       0.145679
@<TRIPOS>BOND
     1     1     2 1   
     2     1    24 1   
     3     1    25 1   
     4     1    26 1   
     5     2     3 1   
     6     2    27 1   
     7     2    28 1   
     8     3     4 1   
     9     4     5 ar  
    10     4    10 ar  
    11     5     6 ar  
    12     6     7 ar  
    13     6    13 1   
    14     7     8 ar  
    15     7    29 1   
    16     8     9 1   
    17     8    10 ar  
    18     9    30 1   
    19     9    31 1   
    20    10    11 1   
    21    11    12 3   
    22    13    14 1   
    23    13    32 1   
    24    14    15 2   
    25    14    16 1   
    26    16    17 1   
    27    16    33 1   
    28    16    34 1   
    29    17    18 ar  
    30    17    23 ar  
    31    18    19 1   
    32    18    20 ar  
    33    19    35 1   
    34    19    36 1   
    35    19    37 1   
    36    20    21 ar  
    37    20    38 1   
    38    21    22 ar  
    39    21    39 1   
    40    22    23 ar  
    41    22    40 1   
    42    23    41 1   
@<TRIPOS>SUBSTRUCTURE
     1 L28         1 TEMP              0 ****  ****    0 ROOT
