@<TRIPOS>MOLECULE
L3E
   46    49     1     0     0
SMALL
resp


@<TRIPOS>ATOM
      1 C1          11.8370    -2.0140     1.1170 c3         1 L3E      -0.374360
      2 N1          13.1190    -2.4440     0.5480 n          1 L3E      -0.085047
      3 C2          14.2840    -2.6030     1.1990 cz         1 L3E       0.592157
      4 N2          14.4760    -2.4190     2.5140 nh         1 L3E      -0.890964
      5 N3          15.2650    -2.9840     0.3720 nh         1 L3E      -0.366665
      6 C3          14.8040    -3.0770    -1.0180 c3         1 L3E      -0.207236
      7 C4          15.4610    -2.0000    -1.9040 ca         1 L3E       0.094623
      8 C5          16.1510    -2.3400    -3.0920 ca         1 L3E      -0.151384
      9 C6          16.6410    -1.3350    -3.9380 ca         1 L3E      -0.178118
     10 C7          16.4310     0.0170    -3.6220 ca         1 L3E      -0.095225
     11 C8          15.8010     0.4010    -2.4220 cp         1 L3E       0.000455
     12 C9          15.5620     1.8310    -2.1120 cp         1 L3E       0.030480
     13 C10         15.2810     2.7550    -3.1460 ca         1 L3E      -0.138686
     14 C11         14.9680     4.0990    -2.8610 ca         1 L3E      -0.197843
     15 C12         14.9450     4.5490    -1.5310 ca         1 L3E      -0.023334
     16 C13         15.2580     3.6600    -0.4910 ca         1 L3E      -0.059674
     17 CL1         15.2530     4.2290     1.1380 cl         1 L3E      -0.094941
     18 C14         15.5640     2.3150    -0.7820 ca         1 L3E      -0.032105
     19 C15         15.3490    -0.6260    -1.5610 ca         1 L3E      -0.137631
     20 CE1         14.9080    -4.5250    -1.5630 cy         1 L3E       0.026348
     21 CE2         16.2080    -5.3450    -1.4850 cy         1 L3E       0.039915
     22 CE3         15.3500    -6.6080    -1.3800 cy         1 L3E      -0.272525
     23 CE4         14.2260    -5.7120    -0.8520 cy         1 L3E       0.039915
     24 C16         13.3170    -2.7300    -0.8330 c          1 L3E       0.560793
     25 O1          12.4290    -2.7010    -1.6920 o          1 L3E      -0.449006
     26 H1          10.9980    -2.4910     0.6090 h1         1 L3E       0.180919
     27 H2          11.7340    -0.9360     1.0000 h1         1 L3E       0.180919
     28 H3          11.7740    -2.2620     2.1760 h1         1 L3E       0.180919
     29 H4          13.7630    -2.0740     3.1550 hn         1 L3E       0.461351
     30 H5          16.2460    -3.0540     0.6410 hn         1 L3E       0.394870
     31 H6          16.3020    -3.3610    -3.4050 ha         1 L3E       0.160288
     32 H7          17.1520    -1.6040    -4.8530 ha         1 L3E       0.176153
     33 H8          16.7590     0.7670    -4.3240 ha         1 L3E       0.150750
     34 H9          15.2560     2.4230    -4.1740 ha         1 L3E       0.144191
     35 H10         14.7190     4.7840    -3.6580 ha         1 L3E       0.173462
     36 H11         14.6860     5.5740    -1.3050 ha         1 L3E       0.141368
     37 H12         15.8000     1.6480     0.0300 ha         1 L3E       0.104851
     38 H13         14.8420    -0.3400    -0.6510 ha         1 L3E       0.072519
     39 HE1         14.5530    -4.5490    -2.5960 hc         1 L3E       0.111515
     40 HE2         16.7850    -5.1580    -0.5770 hc         1 L3E       0.014344
     41 HE3         16.8340    -5.3100    -2.3760 hc         1 L3E       0.014344
     42 HE4         15.1200    -7.0480    -2.3540 hc         1 L3E       0.108628
     43 HE5         15.7160    -7.3540    -0.6740 hc         1 L3E       0.108628
     44 HE6         14.2340    -5.6340     0.2370 hc         1 L3E       0.014344
     45 HE7         13.2340    -5.9640    -1.2300 hc         1 L3E       0.014344
     46 H14         15.4220    -2.4980     2.8930 hn         1 L3E       0.461351
@<TRIPOS>BOND
     1     1     2 1   
     2     1    26 1   
     3     1    27 1   
     4     1    28 1   
     5     2     3 2   
     6     2    24 1   
     7     3     4 1   
     8     3     5 1   
     9     4    29 1   
    10     4    46 1   
    11     5     6 1   
    12     5    30 1   
    13     6     7 1   
    14     6    20 1   
    15     6    24 1   
    16     7     8 ar  
    17     7    19 ar  
    18     8     9 ar  
    19     8    31 1   
    20     9    10 ar  
    21     9    32 1   
    22    10    11 ar  
    23    10    33 1   
    24    11    12 1   
    25    11    19 ar  
    26    12    13 ar  
    27    12    18 ar  
    28    13    14 ar  
    29    13    34 1   
    30    14    15 ar  
    31    14    35 1   
    32    15    16 ar  
    33    15    36 1   
    34    16    17 1   
    35    16    18 ar  
    36    18    37 1   
    37    19    38 1   
    38    20    21 1   
    39    20    23 1   
    40    20    39 1   
    41    21    22 1   
    42    21    40 1   
    43    21    41 1   
    44    22    23 1   
    45    22    42 1   
    46    22    43 1   
    47    23    44 1   
    48    23    45 1   
    49    24    25 2   
@<TRIPOS>SUBSTRUCTURE
     1 L3E         1 TEMP              0 ****  ****    0 ROOT
