@<TRIPOS>MOLECULE
L61
   43    45     1     0     0
SMALL
resp


@<TRIPOS>ATOM
      1 O1           3.8820   -49.5260     6.8970 o          1 L61      -0.747611
      2 C1           2.9280   -48.7320     6.8250 c          1 L61       0.821618
      3 O2           3.1340   -47.4910     6.9200 o          1 L61      -0.747611
      4 C2           1.5360   -49.2540     6.6240 cc         1 L61       0.040481
      5 S1           1.4250   -50.9970     6.6970 ss         1 L61      -0.111169
      6 C3          -0.3090   -50.9690     6.4240 ca         1 L61      -0.118460
      7 C4          -1.1510   -52.0860     6.3710 ca         1 L61      -0.121132
      8 C5          -2.5140   -51.9290     6.1220 ca         1 L61      -0.268467
      9 C6          -3.0250   -50.6310     5.9290 ca         1 L61      -0.055737
     10 C7          -2.1820   -49.5060     5.9840 ca         1 L61      -0.119570
     11 C8          -0.7820   -49.6250     6.2500 ca         1 L61       0.370609
     12 C9           0.3080   -48.6540     6.3900 cd         1 L61      -0.355951
     13 C10          0.1210   -47.1520     6.2830 c3         1 L61       0.104652
     14 C11         -0.4500   -46.5530     7.5730 c3         1 L61       0.123044
     15 C12         -0.8430   -45.0780     7.3830 c3         1 L61       0.008524
     16 O3          -1.8680   -44.9580     6.4020 os         1 L61      -0.477934
     17 C13         -3.1960   -44.8480     6.7660 ca         1 L61       0.679882
     18 C16         -3.7130   -45.1300     8.0500 ca         1 L61      -0.610928
     19 C15         -5.0950   -44.9810     8.3080 ca         1 L61       0.370650
     20 CC1         -5.6270   -45.2970     9.7020 c3         1 L61      -0.293602
     21 C14         -5.9650   -44.5580     7.2880 ca         1 L61      -0.276939
     22 CL1         -7.6630   -44.3660     7.6090 cl         1 L61      -0.136881
     23 C17         -5.4620   -44.2950     6.0020 ca         1 L61       0.370650
     24 CH1         -6.3760   -43.8530     4.8620 c3         1 L61      -0.293602
     25 C18         -4.0820   -44.4390     5.7600 ca         1 L61      -0.610928
     26 CL2         -2.9290   -47.9600     5.6970 cl         1 L61      -0.138154
     27 H1          -0.7430   -53.0870     6.5090 ha         1 L61       0.169867
     28 H2          -3.1760   -52.7800     6.0760 ha         1 L61       0.151379
     29 H3          -4.0810   -50.5040     5.7250 ha         1 L61       0.113973
     30 H5          -0.5260   -46.9310     5.4470 hc         1 L61       0.035842
     31 H6           1.0630   -46.6620     6.0130 hc         1 L61       0.035842
     32 H7           0.2860   -46.6480     8.3770 hc         1 L61      -0.022348
     33 H8          -1.3240   -47.1180     7.8960 hc         1 L61      -0.022348
     34 H9           0.0270   -44.5320     7.0300 h1         1 L61       0.082545
     35 H10         -1.1170   -44.6110     8.3210 h1         1 L61       0.082545
     36 H11         -3.0670   -45.4820     8.8410 ha         1 L61       0.223989
     37 HC1         -6.2640   -44.4910    10.0770 hc         1 L61       0.086549
     38 HC2         -6.2150   -46.2160     9.6760 hc         1 L61       0.086549
     39 HC3         -4.8150   -45.4370    10.4140 hc         1 L61       0.086549
     40 HH1         -5.8050   -43.6610     3.9500 hc         1 L61       0.086549
     41 HH2         -7.1110   -44.6280     4.6380 hc         1 L61       0.086549
     42 HH3         -6.9050   -42.9350     5.1220 hc         1 L61       0.086549
     43 H19         -3.6930   -44.2330     4.7670 ha         1 L61       0.223989
@<TRIPOS>BOND
     1     1     2 1   
     2     2     3 1   
     3     2     4 1   
     4     4     5 1   
     5     4    12 2   
     6     5     6 1   
     7     6     7 ar  
     8     6    11 ar  
     9     7     8 ar  
    10     7    27 1   
    11     8     9 ar  
    12     8    28 1   
    13     9    10 ar  
    14     9    29 1   
    15    10    11 ar  
    16    10    26 1   
    17    11    12 1   
    18    12    13 1   
    19    13    14 1   
    20    13    30 1   
    21    13    31 1   
    22    14    15 1   
    23    14    32 1   
    24    14    33 1   
    25    15    16 1   
    26    15    34 1   
    27    15    35 1   
    28    16    17 1   
    29    17    18 ar  
    30    17    25 ar  
    31    18    19 ar  
    32    18    36 1   
    33    19    20 1   
    34    19    21 ar  
    35    20    37 1   
    36    20    38 1   
    37    20    39 1   
    38    21    22 1   
    39    21    23 ar  
    40    23    24 1   
    41    23    25 ar  
    42    24    40 1   
    43    24    41 1   
    44    24    42 1   
    45    25    43 1   
@<TRIPOS>SUBSTRUCTURE
     1 L61         1 TEMP              0 ****  ****    0 ROOT
