@<TRIPOS>MOLECULE
L4O
   45    48     1     0     0
SMALL
resp


@<TRIPOS>ATOM
      1 C1          11.7080    -2.3340     1.2790 c3         1 L4O      -0.238614
      2 N1          13.0270    -2.6810     0.7330 n          1 L4O      -0.138165
      3 C2          14.1990    -2.6480     1.3820 cz         1 L4O       0.743074
      4 N2          14.3810    -2.3630     2.6740 nh         1 L4O      -0.968709
      5 N3          15.2170    -2.9460     0.5770 nh         1 L4O      -0.475464
      6 C3          14.7860    -3.2910    -0.7800 c3         1 L4O      -0.328512
      7 CO1         15.1320    -4.7730    -1.0530 ca         1 L4O       0.112952
      8 CO2         16.3610    -5.2810    -0.5800 ca         1 L4O      -0.158044
      9 CO3         16.7390    -6.6180    -0.7850 ca         1 L4O      -0.152364
     10 CO4         15.8670    -7.4920    -1.4440 ca         1 L4O      -0.081916
     11 CO5         14.6400    -7.0150    -1.9350 ca         1 L4O      -0.152364
     12 CO6         14.2820    -5.6630    -1.7530 ca         1 L4O      -0.158044
     13 C4          15.3660    -2.2950    -1.7990 ca         1 L4O       0.265627
     14 C5          15.9430    -2.7230    -3.0180 ca         1 L4O      -0.221071
     15 C6          16.4290    -1.7760    -3.9350 ca         1 L4O      -0.181571
     16 C7          16.3310    -0.4020    -3.6590 ca         1 L4O      -0.064068
     17 C8          15.7810     0.0630    -2.4470 cp         1 L4O      -0.021207
     18 C9          15.6540     1.5120    -2.1630 cp         1 L4O      -0.140190
     19 C10         15.5220     2.4730    -3.1910 ca         1 L4O       0.307574
     20 N11         15.3350     3.7920    -2.9800 nb         1 L4O      -0.570963
     21 C12         15.2790     4.2300    -1.7070 ca         1 L4O       0.247052
     22 C13         15.4380     3.3820    -0.6010 ca         1 L4O       0.095992
     23 F1          15.3970     3.8650     0.6640 f          1 L4O      -0.181662
     24 C14         15.6330     2.0130    -0.8430 ca         1 L4O      -0.060987
     25 C15         15.3160    -0.9040    -1.5260 ca         1 L4O      -0.185754
     26 C16         13.2660    -3.0500    -0.6250 c          1 L4O       0.600318
     27 O1          12.3850    -3.1140    -1.4900 o          1 L4O      -0.442817
     28 H1          11.6550    -2.5570     2.3440 h1         1 L4O       0.143482
     29 H2          11.5250    -1.2690     1.1370 h1         1 L4O       0.143482
     30 H3          10.9130    -2.8850     0.7780 h1         1 L4O       0.143482
     31 H4          15.3270    -2.3640     3.0580 hn         1 L4O       0.481189
     32 H5          16.1980    -2.9380     0.8560 hn         1 L4O       0.403775
     33 HO2         17.0280    -4.6430    -0.0290 ha         1 L4O       0.156613
     34 HO3         17.6890    -6.9710    -0.4080 ha         1 L4O       0.163993
     35 HO4         16.1440    -8.5260    -1.5530 ha         1 L4O       0.152831
     36 HO5         13.9720    -7.6890    -2.4490 ha         1 L4O       0.163993
     37 HO6         13.3370    -5.3360    -2.1500 ha         1 L4O       0.156613
     38 H6          16.0200    -3.7710    -3.2730 ha         1 L4O       0.199140
     39 H7          16.8710    -2.0940    -4.8680 ha         1 L4O       0.180281
     40 H8          16.6870     0.2930    -4.4030 ha         1 L4O       0.144161
     41 H9          15.5280     2.1750    -4.2290 h4         1 L4O       0.070039
     42 H11         15.1000     5.2850    -1.5670 h4         1 L4O       0.106327
     43 H12         15.7730     1.3510    -0.0060 ha         1 L4O       0.153316
     44 H13         14.8710    -0.5690    -0.6010 ha         1 L4O       0.105991
     45 H14         13.6420    -2.0670     3.3100 hn         1 L4O       0.481189
@<TRIPOS>BOND
     1     1     2 1   
     2     1    28 1   
     3     1    29 1   
     4     1    30 1   
     5     2     3 2   
     6     2    26 1   
     7     3     4 1   
     8     3     5 1   
     9     4    31 1   
    10     4    45 1   
    11     5     6 1   
    12     5    32 1   
    13     6     7 1   
    14     6    13 1   
    15     6    26 1   
    16     7     8 ar  
    17     7    12 ar  
    18     8     9 ar  
    19     8    33 1   
    20     9    10 ar  
    21     9    34 1   
    22    10    11 ar  
    23    10    35 1   
    24    11    12 ar  
    25    11    36 1   
    26    12    37 1   
    27    13    14 ar  
    28    13    25 ar  
    29    14    15 ar  
    30    14    38 1   
    31    15    16 ar  
    32    15    39 1   
    33    16    17 ar  
    34    16    40 1   
    35    17    18 1   
    36    17    25 ar  
    37    18    19 ar  
    38    18    24 ar  
    39    19    20 ar  
    40    19    41 1   
    41    20    21 ar  
    42    21    22 ar  
    43    21    42 1   
    44    22    23 1   
    45    22    24 ar  
    46    24    43 1   
    47    25    44 1   
    48    26    27 2   
@<TRIPOS>SUBSTRUCTURE
     1 L4O         1 TEMP              0 ****  ****    0 ROOT
