@<TRIPOS>MOLECULE
L79
   49    51     1     0     0
SMALL
resp


@<TRIPOS>ATOM
      1  CM1        35.5540     5.2760    12.3070 c3         1 L79      -0.268690
      2  CM2        37.0750     5.4460    12.3000 c          1 L79       0.747200
      3  OM1        37.6780     5.2200    11.2500 o          1 L79      -0.643149
      4  NK         37.7150     5.8360    13.4580 n          1 L79      -0.356878
      5  CK3        37.0170     6.1410    14.7980 c3         1 L79       0.095364
      6  CK2        37.3830     7.5400    15.3340 c3         1 L79      -0.323809
      7  CK1        38.9110     7.7620    15.4290 c3         1 L79       0.405651
      8  N1         39.1830     9.1390    15.8450 nh         1 L79      -0.782256
      9  C12        40.4830     9.5700    16.1590 ca         1 L79       0.233649
     10  C11        41.4810     8.7320    16.6730 ca         1 L79      -0.149249
     11  C10        42.7510     9.2420    16.9420 ca         1 L79      -0.272866
     12  C9         43.0420    10.5800    16.6710 ca         1 L79      -0.072728
     13  C8         42.0580    11.4350    16.1600 ca         1 L79       0.009578
     14  C5         42.3470    12.8250    15.8290 cc         1 L79       0.052735
     15  S1         43.4370    13.7820    16.8010 ss         1 L79      -0.155439
     16  C4         43.2080    15.1990    15.7940 cc         1 L79      -0.069961
     17  C7         43.9660    16.4140    16.1780 c          1 L79       0.791904
     18  O5         44.7100    16.3640    17.1820 o          1 L79      -0.753226
     19  O4         43.8410    17.4560    15.4970 o          1 L79      -0.753226
     20  C3         42.3250    14.9330    14.7530 cd         1 L79       0.246351
     21  O3         41.9730    15.8280    13.8000 os         1 L79      -0.305839
     22  C2         40.8050    16.5940    14.0880 c3         1 L79      -0.014300
     23  C1         40.2680    17.2820    12.8310 c          1 L79       0.914859
     24  O2         40.8640    17.0550    11.7550 o          1 L79      -0.853599
     25  O1         39.2660    18.0190    12.9660 o          1 L79      -0.853599
     26  C6         41.8780    13.6140    14.7800 cd         1 L79      -0.179820
     27  BR1        40.7170    12.9520    13.4200 br         1 L79      -0.062525
     28  C13        40.7760    10.9160    15.9500 ca         1 L79      -0.172822
     29  CK5        39.6100     7.4190    14.0880 c3         1 L79      -0.323809
     30  CK4        39.2400     6.0200    13.5610 c3         1 L79       0.095364
     31  HM1        35.2030     4.9240    11.3370 hc         1 L79       0.067707
     32  HM2        35.2500     4.5440    13.0560 hc         1 L79       0.067707
     33  HM3        35.0610     6.2250    12.5160 hc         1 L79       0.067707
     34 HK32        35.9330     6.0670    14.7200 h1         1 L79       0.031308
     35 HK31        37.3190     5.3850    15.5230 h1         1 L79       0.031308
     36 HK22        36.9560     8.3030    14.6820 hc         1 L79       0.113960
     37 HK21        36.9350     7.6920    16.3160 hc         1 L79       0.113960
     38 HK11        38.9940     7.5180    16.2720 h1         1 L79       0.041781
     39  HN2        38.3890     9.7610    15.8900 hn         1 L79       0.350785
     40  H5         41.3040     7.6880    16.8710 ha         1 L79       0.102752
     41  H4         43.5110     8.5990    17.3610 ha         1 L79       0.155648
     42  H3         44.0390    10.9520    16.8550 ha         1 L79       0.111818
     43  H1         40.0210    15.9860    14.5420 h1         1 L79       0.038607
     44  H2         41.0680    17.3550    14.8230 h1         1 L79       0.038607
     45  H6         39.9930    11.5840    15.6200 ha         1 L79       0.150943
     46 HK52        39.3380     8.1590    13.3360 hc         1 L79       0.113960
     47 HK51        40.6920     7.4850    14.2040 hc         1 L79       0.113960
     48 HK41        39.7050     5.2680    14.1990 h1         1 L79       0.031308
     49 HK42        39.6700     5.8780    12.5690 h1         1 L79       0.031308
@<TRIPOS>BOND
     1     1     2 1   
     2     1    31 1   
     3     1    32 1   
     4     1    33 1   
     5     2     3 2   
     6     2     4 1   
     7     4     5 1   
     8     4    30 1   
     9     5     6 1   
    10     5    34 1   
    11     5    35 1   
    12     6     7 1   
    13     6    36 1   
    14     6    37 1   
    15     7     8 1   
    16     7    29 1   
    17     7    38 1   
    18     8     9 1   
    19     8    39 1   
    20     9    10 ar  
    21     9    28 ar  
    22    10    11 ar  
    23    10    40 1   
    24    11    12 ar  
    25    11    41 1   
    26    12    13 ar  
    27    12    42 1   
    28    13    14 1   
    29    13    28 ar  
    30    14    15 1   
    31    14    26 2   
    32    15    16 1   
    33    16    17 1   
    34    16    20 2   
    35    17    18 1   
    36    17    19 1   
    37    20    21 1   
    38    20    26 1   
    39    21    22 1   
    40    22    23 1   
    41    22    43 1   
    42    22    44 1   
    43    23    24 1   
    44    23    25 1   
    45    26    27 1   
    46    28    45 1   
    47    29    30 1   
    48    29    46 1   
    49    29    47 1   
    50    30    48 1   
    51    30    49 1   
@<TRIPOS>SUBSTRUCTURE
     1 L79         1 TEMP              0 ****  ****    0 ROOT
