@<TRIPOS>MOLECULE
L44
   44    47     1     0     0
SMALL
resp


@<TRIPOS>ATOM
      1 O1           3.5640   -47.8400     6.3290 o          1 L44      -0.794947
      2 C1           3.0050   -48.8790     6.7360 c          1 L44       0.874127
      3 O2           3.6000   -49.7030     7.4710 o          1 L44      -0.794947
      4 C2           1.6000   -49.1350     6.3550 cc         1 L44       0.048806
      5 C3          -0.2710   -50.4500     6.3390 ca         1 L44       0.375549
      6 C4          -1.2450   -51.4530     6.4980 ca         1 L44      -0.383063
      7 C5          -2.5290   -51.2640     5.9570 ca         1 L44      -0.113166
      8 C6          -2.8260   -50.0750     5.2630 ca         1 L44      -0.269855
      9 C7          -1.8460   -49.0730     5.1110 ca         1 L44      -0.171058
     10 C8          -0.5470   -49.2370     5.6460 ca         1 L44       0.007777
     11 C9           0.6400   -48.4120     5.6800 cd         1 L44      -0.186494
     12 C10          0.7660   -47.0200     5.1110 c3         1 L44       0.094682
     13 C11          0.8380   -45.9170     6.1890 c3         1 L44       0.000756
     14 C12         -0.2510   -46.0040     7.2640 c3         1 L44      -0.206504
     15 O3          -1.5120   -45.6950     6.6850 os         1 L44      -0.227055
     16 C13         -2.6160   -45.6890     7.5100 ca         1 L44       0.257575
     17 C14         -4.9360   -45.6100     9.1490 ca         1 L44      -0.201096
     18 C15         -3.7950   -46.3190     9.5620 ca         1 L44      -0.007535
     19 C16         -2.6430   -46.3570     8.7570 ca         1 L44      -0.353796
     20 CL1         -6.3140   -45.5880    10.1970 cl         1 L44      -0.140182
     21 H1          -1.0080   -52.3590     7.0270 ha         1 L44       0.174661
     22 H2          -3.2860   -52.0250     6.0740 ha         1 L44       0.120911
     23 H3          -3.8130   -49.9200     4.8500 ha         1 L44       0.138359
     24 H4          -2.0820   -48.1640     4.5780 ha         1 L44       0.161696
     25 H5          -0.0880   -46.8180     4.4620 hc         1 L44      -0.006220
     26 H6           1.6450   -46.9600     4.4630 hc         1 L44      -0.006220
     27 H7           0.8130   -44.9400     5.7100 hc         1 L44       0.045029
     28 H8           1.8060   -45.9780     6.6860 hc         1 L44       0.045029
     29 H9          -0.0400   -45.2810     8.0530 h1         1 L44       0.132767
     30 H10         -0.2390   -46.9910     7.7220 h1         1 L44       0.132767
     31 H11         -1.8000   -46.9190     9.1150 ha         1 L44       0.177394
     32 H12         -3.7970   -46.8280    10.5130 ha         1 L44       0.143766
     33 C17         -4.9330   -44.9380     7.9020 ca         1 L44       0.324261
     34 C18         -3.7720   -44.9850     7.0810 ca         1 L44      -0.065879
     35 C19         -3.7720   -44.3170     5.8390 ca         1 L44      -0.167907
     36 C20         -4.9090   -43.6150     5.4040 ca         1 L44      -0.154452
     37 C21         -6.0600   -43.5680     6.2110 ca         1 L44      -0.121928
     38 C22         -6.0720   -44.2250     7.4560 ca         1 L44      -0.279701
     39 N1           1.0420   -50.3410     6.7510 na         1 L44      -0.576908
     40 H14         -2.9030   -44.3380     5.2010 ha         1 L44       0.152316
     41 H15         -4.9000   -43.1140     4.4480 ha         1 L44       0.135761
     42 H16         -6.9300   -43.0280     5.8750 ha         1 L44       0.136762
     43 H17         -6.9610   -44.1700     8.0630 ha         1 L44       0.159209
     44 H            1.5790   -51.0060     7.2850 hn         1 L44       0.388956
@<TRIPOS>BOND
     1     1     2 1   
     2     2     3 1   
     3     2     4 1   
     4     4    11 2   
     5     4    39 1   
     6     5     6 ar  
     7     5    10 ar  
     8     5    39 1   
     9     6     7 ar  
    10     6    21 1   
    11     7     8 ar  
    12     7    22 1   
    13     8     9 ar  
    14     8    23 1   
    15     9    10 ar  
    16     9    24 1   
    17    10    11 1   
    18    11    12 1   
    19    12    13 1   
    20    12    25 1   
    21    12    26 1   
    22    13    14 1   
    23    13    27 1   
    24    13    28 1   
    25    14    15 1   
    26    14    29 1   
    27    14    30 1   
    28    15    16 1   
    29    16    19 ar  
    30    16    34 ar  
    31    17    18 ar  
    32    17    20 1   
    33    17    33 ar  
    34    18    19 ar  
    35    18    32 1   
    36    19    31 1   
    37    33    34 ar  
    38    33    38 ar  
    39    34    35 ar  
    40    35    36 ar  
    41    35    40 1   
    42    36    37 ar  
    43    36    41 1   
    44    37    38 ar  
    45    37    42 1   
    46    38    43 1   
    47    39    44 1   
@<TRIPOS>SUBSTRUCTURE
     1 L44         1 TEMP              0 ****  ****    0 ROOT
