@<TRIPOS>MOLECULE
2AA
   43    45     1     0     0
SMALL
resp


@<TRIPOS>ATOM
      1 C5           38.260     36.710     17.010 ca         1 2AA      -0.509006
      2 C6           34.540     34.970     21.180 c          1 2AA       0.640650
      3 C7           37.590     36.180     18.130 ca         1 2AA       0.375967
      4 C8           34.040     38.970     23.730 ca         1 2AA       1.053566
      5 C9           33.150     38.920     26.130 c3         1 2AA       0.337314
      6 C10          34.800     37.810     21.440 ca         1 2AA      -0.378888
      7 C11          35.250     37.120     20.230 cc         1 2AA      -0.228033
      8 C12          37.620     36.740     15.750 ca         1 2AA       0.461631
      9 C13          36.320     36.210     15.620 ca         1 2AA      -0.408010
     10 C14          35.670     35.660     16.740 ca         1 2AA      -0.138459
     11 C15          34.300     37.030     22.510 ca         1 2AA       0.465383
     12 C16          34.850     39.200     21.610 ca         1 2AA       0.451727
     13 C17          35.160     35.780     20.120 cd         1 2AA       0.107813
     14 C18          36.290     35.660     18.000 ca         1 2AA       0.148200
     15 C19          33.660     34.830     23.460 c3         1 2AA      -0.241161
     16 F1           38.190     36.190     19.320 f          1 2AA      -0.184137
     17 O2           35.650     35.060     19.050 os         1 2AA      -0.323324
     18 N1           34.470     39.790     22.770 nb         1 2AA      -0.840529
     19 O3           34.320     33.770     21.020 o          1 2AA      -0.562091
     20 N2           34.210     35.610     22.340 n          1 2AA      -0.162018
     21 N3           33.930     37.650     23.650 nb         1 2AA      -0.642807
     22 N4           33.670     39.560     24.920 nh         1 2AA      -0.836732
     23 CN1          33.610     37.500     26.160 c3         1 2AA       0.210216
     24 CN2          33.670     39.650     27.340 c3         1 2AA       0.210216
     25 ON1          35.080     39.600     27.350 oh         1 2AA      -0.706753
     26 ON2          33.120     36.870     27.320 oh         1 2AA      -0.706753
     27 H9           39.250     37.110     17.110 ha         1 2AA       0.246606
     28 H11          35.700     37.730     19.460 ha         1 2AA       0.165237
     29 H12          35.830     36.220     14.660 ha         1 2AA       0.218516
     30 H13          34.690     35.230     16.620 ha         1 2AA       0.194432
     31 H14          35.210     39.850     20.830 h4         1 2AA       0.094837
     32 H15          34.050     35.180     24.410 h1         1 2AA       0.118894
     33 H16          32.580     34.910     23.480 h1         1 2AA       0.118894
     34 H17          33.920     33.770     23.420 h1         1 2AA       0.118894
     35 H18          33.790     40.560     24.970 hn         1 2AA       0.402185
     36 HN1          35.410     40.060     28.120 ho         1 2AA       0.444866
     37 HN2          33.340     40.690     27.310 h1         1 2AA       0.010946
     38 HN3          33.290     39.170     28.240 h1         1 2AA       0.010946
     39 HN4          33.230     36.980     25.280 h1         1 2AA       0.010946
     40 HN5          34.700     37.460     26.160 h1         1 2AA       0.010946
     41 HN6          33.410     35.950     27.340 ho         1 2AA       0.444866
     42 H10          32.060     38.960     26.120 h1         1 2AA       0.006942
     43 F2           38.230     37.270     14.700 f          1 2AA      -0.212936
@<TRIPOS>BOND
     1     1     3 ar  
     2     1     8 ar  
     3     1    27 1   
     4     2    13 1   
     5     2    19 2   
     6     2    20 1   
     7     3    14 ar  
     8     3    16 1   
     9     4    18 ar  
    10     4    21 ar  
    11     4    22 1   
    12     5    22 1   
    13     5    23 1   
    14     5    24 1   
    15     5    42 1   
    16     6     7 1   
    17     6    11 ar  
    18     6    12 ar  
    19     7    13 2   
    20     7    28 1   
    21     8     9 ar  
    22     8    43 1   
    23     9    10 ar  
    24     9    29 1   
    25    10    14 ar  
    26    10    30 1   
    27    11    20 1   
    28    11    21 ar  
    29    12    18 ar  
    30    12    31 1   
    31    13    17 1   
    32    14    17 1   
    33    15    20 1   
    34    15    32 1   
    35    15    33 1   
    36    15    34 1   
    37    22    35 1   
    38    23    26 1   
    39    23    39 1   
    40    23    40 1   
    41    24    25 1   
    42    24    37 1   
    43    24    38 1   
    44    25    36 1   
    45    26    41 1   
@<TRIPOS>SUBSTRUCTURE
     1 2AA         1 TEMP              0 ****  ****    0 ROOT
