@<TRIPOS>MOLECULE
L68
   43    46     1     0     0
SMALL
resp


@<TRIPOS>ATOM
      1 O1           3.7730   -49.6840     6.9460 o          1 L68      -0.760188
      2 C1           2.9100   -48.7930     6.7500 c          1 L68       0.785900
      3 O2           3.2300   -47.5840     6.7160 o          1 L68      -0.760188
      4 C2           1.4910   -49.1840     6.5590 cc         1 L68       0.228582
      5 C3          -0.1870   -50.6390     6.5130 ca         1 L68       0.414675
      6 C4          -0.9630   -51.8100     6.5960 ca         1 L68      -0.386778
      7 C5          -2.3550   -51.7200     6.4060 ca         1 L68      -0.075476
      8 C6          -2.9390   -50.4630     6.1300 ca         1 L68      -0.067874
      9 C7          -2.1380   -49.2960     6.0370 ca         1 L68      -0.080671
     10 C8          -0.7390   -49.3610     6.2410 ca         1 L68      -0.051957
     11 C9           0.3630   -48.4390     6.2580 cd         1 L68      -0.243272
     12 C10          0.2860   -46.9620     5.9970 c3         1 L68       0.043419
     13 C11          0.3100   -46.1150     7.2840 c3         1 L68      -0.024122
     14 C12         -0.9470   -46.2730     8.1530 c3         1 L68      -0.082869
     15 O3          -2.0340   -45.7610     7.3980 os         1 L68      -0.264167
     16 C13         -3.2650   -45.6380     8.0060 ca         1 L68       0.236046
     17 C14         -5.8320   -45.2980     9.1520 ca         1 L68      -0.396805
     18 C15         -4.8420   -46.0260     9.8380 ca         1 L68      -0.089348
     19 C16         -3.5650   -46.1960     9.2720 ca         1 L68      -0.289678
     20 CL5         -4.6520   -50.3570     5.9190 cl         1 L68      -0.168650
     21 H1          -0.4810   -52.7480     6.8120 ha         1 L68       0.202422
     22 H2          -2.9630   -52.6050     6.4680 ha         1 L68       0.133553
     23 H4          -2.6130   -48.3490     5.8310 ha         1 L68       0.160132
     24 H5          -0.6030   -46.7220     5.4160 hc         1 L68       0.021453
     25 H6           1.1270   -46.6650     5.3670 hc         1 L68       0.021453
     26 H7           0.4120   -45.0600     7.0050 hc         1 L68       0.044209
     27 H8           1.1930   -46.3510     7.8810 hc         1 L68       0.044209
     28 H9          -0.8330   -45.6980     9.0730 h1         1 L68       0.097638
     29 H10         -1.1060   -47.3190     8.4130 h1         1 L68       0.097638
     30 H11         -2.8350   -46.7580     9.8320 ha         1 L68       0.154601
     31 H12         -5.0580   -46.4520    10.8110 ha         1 L68       0.146252
     32 H13         -6.8040   -45.1700     9.6050 ha         1 L68       0.174307
     33 C17         -5.5500   -44.7470     7.8900 ca         1 L68       0.275692
     34 C18         -4.2680   -44.9220     7.3120 ca         1 L68       0.005225
     35 C19         -4.0000   -44.3710     6.0380 ca         1 L68      -0.184893
     36 C20         -4.9990   -43.6490     5.3560 ca         1 L68      -0.166075
     37 C21         -6.2700   -43.4720     5.9400 ca         1 L68      -0.112804
     38 C22         -6.5450   -44.0200     7.2050 ca         1 L68      -0.284791
     39 O4           1.1760   -50.5210     6.6920 os         1 L68      -0.359834
     40 H14         -3.0330   -44.4980     5.5700 ha         1 L68       0.147829
     41 H15         -4.7840   -43.2320     4.3760 ha         1 L68       0.135934
     42 H16         -7.0330   -42.9140     5.4100 ha         1 L68       0.128779
     43 H17         -7.5190   -43.8840     7.6480 ha         1 L68       0.150491
@<TRIPOS>BOND
     1     1     2 1   
     2     2     3 1   
     3     2     4 1   
     4     4    11 2   
     5     4    39 1   
     6     5     6 ar  
     7     5    10 ar  
     8     5    39 1   
     9     6     7 ar  
    10     6    21 1   
    11     7     8 ar  
    12     7    22 1   
    13     8     9 ar  
    14     8    20 1   
    15     9    10 ar  
    16     9    23 1   
    17    10    11 1   
    18    11    12 1   
    19    12    13 1   
    20    12    24 1   
    21    12    25 1   
    22    13    14 1   
    23    13    26 1   
    24    13    27 1   
    25    14    15 1   
    26    14    28 1   
    27    14    29 1   
    28    15    16 1   
    29    16    19 ar  
    30    16    34 ar  
    31    17    18 ar  
    32    17    32 1   
    33    17    33 ar  
    34    18    19 ar  
    35    18    31 1   
    36    19    30 1   
    37    33    34 ar  
    38    33    38 ar  
    39    34    35 ar  
    40    35    36 ar  
    41    35    40 1   
    42    36    37 ar  
    43    36    41 1   
    44    37    38 ar  
    45    37    42 1   
    46    38    43 1   
@<TRIPOS>SUBSTRUCTURE
     1 L68         1 TEMP              0 ****  ****    0 ROOT
