@<TRIPOS>MOLECULE
2Q
   59    63     1     0     0
SMALL
resp


@<TRIPOS>ATOM
      1 C5          38.2630    36.7140    17.0130 ca         1 2Q      -0.505200
      2 C6          34.5450    34.9770    21.1830 c          1 2Q       0.696678
      3 C7          37.5970    36.1890    18.1370 ca         1 2Q       0.370478
      4 C8          34.0440    38.9760    23.7380 ca         1 2Q       1.151140
      5 C10         34.8030    37.8110    21.4410 ca         1 2Q      -0.318139
      6 C11         35.2540    37.1250    20.2340 cc         1 2Q      -0.235748
      7 C12         37.6230    36.7430    15.7590 ca         1 2Q       0.462698
      8 C13         36.3270    36.2160    15.6230 ca         1 2Q      -0.407751
      9 C14         35.6720    35.6680    16.7400 ca         1 2Q      -0.135043
     10 C15         34.3070    37.0370    22.5110 ca         1 2Q       0.454472
     11 C16         34.8520    39.2090    21.6170 ca         1 2Q       0.401048
     12 C17         35.1650    35.7820    20.1250 cd         1 2Q       0.118616
     13 C18         36.2930    35.6640    18.0030 ca         1 2Q       0.147612
     14 F1          38.1960    36.1970    19.3280 f          1 2Q      -0.184226
     15 O2          35.6500    35.0620    19.0540 os         1 2Q      -0.324256
     16 N1          34.4790    39.7920    22.7770 nb         1 2Q      -0.826280
     17 O3          34.3290    33.7760    21.0230 o          1 2Q      -0.589625
     18 N2          34.2120    35.6180    22.3420 n          1 2Q      -0.359567
     19 N3          33.9310    37.6500    23.6560 nb         1 2Q      -0.671275
     20 N4          33.6720    39.5650    24.9270 nh         1 2Q      -1.036453
     21 H9          39.2580    37.1160    17.1170 ha         1 2Q       0.247673
     22 H11         35.7030    37.7360    19.4670 ha         1 2Q       0.163789
     23 H12         35.8370    36.2250    14.6600 ha         1 2Q       0.219949
     24 H13         34.6920    35.2300    16.6230 ha         1 2Q       0.192052
     25 H14         35.2180    39.8560    20.8360 h4         1 2Q       0.109210
     26 H18         33.7900    40.5680    24.9710 hn         1 2Q       0.412403
     27 F2          38.2360    37.2740    14.7020 f          1 2Q      -0.211534
     28 C2          32.3860    39.3430    28.5030 c3         1 2Q       0.242910
     29 C1          32.8830    39.9950    27.2020 c3         1 2Q      -0.282172
     30 C9          33.1620    38.9330    26.1270 c3         1 2Q       0.659374
     31 C4          34.1670    37.8860    26.6360 c3         1 2Q      -0.282172
     32 C3          33.6710    37.2350    27.9360 c3         1 2Q       0.242910
     33 O1          33.3910    38.2970    29.0120 os         1 2Q      -0.476286
     34 CM1         32.9680    35.0150    25.8880 c3         1 2Q      -0.400900
     35 CM2         33.4300    35.8030    24.6520 c3         1 2Q       0.028247
     36 CM3         33.7350    34.8580    23.4790 c3         1 2Q       0.073639
     37 CM4         34.7790    33.8020    23.8800 c3         1 2Q       0.028247
     38 CM5         34.3160    33.0140    25.1160 c3         1 2Q      -0.400900
     39 H3          31.4000    38.8530    28.3200 h1         1 2Q       0.017044
     40 H4          32.2220    40.1260    29.2830 h1         1 2Q       0.017044
     41 H1          33.8170    40.5710    27.4080 hc         1 2Q       0.072514
     42 H2          32.1250    40.7260    26.8280 hc         1 2Q       0.072514
     43 H10         32.2070    38.4260    25.8480 h1         1 2Q      -0.004995
     44 H7          34.3310    37.1040    25.8550 hc         1 2Q       0.072514
     45 H8          35.1540    38.3770    26.8180 hc         1 2Q       0.072514
     46 H5          32.7370    36.6590    27.7310 h1         1 2Q       0.017044
     47 H6          34.4290    36.5040    28.3100 h1         1 2Q       0.017044
     48 HM1         31.9970    34.5110    25.6660 h1         1 2Q       0.158805
     49 HM2         32.7850    35.7130    26.7400 h1         1 2Q       0.158805
     50 HM3         34.3470    36.3880    24.9060 hc         1 2Q       0.050693
     51 HM4         32.6450    36.5400    24.3540 hc         1 2Q       0.050693
     52 HM5         32.7950    34.3480    23.1590 h1         1 2Q       0.119585
     53 HM6         34.9610    33.1030    23.0280 hc         1 2Q       0.050693
     54 HM7         35.7500    34.3060    24.1020 hc         1 2Q       0.050693
     55 HM8         33.4000    32.4290    24.8620 h1         1 2Q       0.158805
     56 HM9         35.1010    32.2760    25.4140 h1         1 2Q       0.158805
     57 S10         34.0210    33.9580    26.3090 s6         1 2Q       1.129264
     58 O40         35.2750    34.6740    26.6410 o          1 2Q      -0.607850
     59 O50         33.4340    33.1430    27.3980 o          1 2Q      -0.607850
@<TRIPOS>BOND
     1     1     3 ar  
     2     1     7 ar  
     3     1    21 1   
     4     2    12 1   
     5     2    17 2   
     6     2    18 1   
     7     3    13 ar  
     8     3    14 1   
     9     4    16 ar  
    10     4    19 ar  
    11     4    20 1   
    12     5     6 1   
    13     5    10 ar  
    14     5    11 ar  
    15     6    12 2   
    16     6    22 1   
    17     7     8 ar  
    18     7    27 1   
    19     8     9 ar  
    20     8    23 1   
    21     9    13 ar  
    22     9    24 1   
    23    10    18 1   
    24    10    19 ar  
    25    11    16 ar  
    26    11    25 1   
    27    12    15 1   
    28    13    15 1   
    29    18    36 1   
    30    20    26 1   
    31    20    30 1   
    32    28    29 1   
    33    28    33 1   
    34    28    39 1   
    35    28    40 1   
    36    29    30 1   
    37    29    41 1   
    38    29    42 1   
    39    30    31 1   
    40    30    43 1   
    41    31    32 1   
    42    31    44 1   
    43    31    45 1   
    44    32    33 1   
    45    32    46 1   
    46    32    47 1   
    47    34    35 1   
    48    34    48 1   
    49    34    49 1   
    50    34    57 1   
    51    35    36 1   
    52    35    50 1   
    53    35    51 1   
    54    36    37 1   
    55    36    52 1   
    56    37    38 1   
    57    37    53 1   
    58    37    54 1   
    59    38    55 1   
    60    38    56 1   
    61    38    57 1   
    62    57    58 2   
    63    57    59 2   
@<TRIPOS>SUBSTRUCTURE
     1 2Q         1 TEMP              0 ****  ****    0 ROOT
