@<TRIPOS>MOLECULE
L53
   44    46     1     0     0
SMALL
resp


@<TRIPOS>ATOM
      1 O1           3.5630   -47.7720     6.2910 o          1 L53      -0.789819
      2 C1           2.9990   -48.7570     6.8100 c          1 L53       0.872905
      3 O2           3.5990   -49.5250     7.5970 o          1 L53      -0.789819
      4 C2           1.5780   -49.0220     6.4970 cc         1 L53       0.032161
      5 C3          -0.3470   -50.2340     6.7440 ca         1 L53       0.298195
      6 C4          -1.3730   -51.1290     7.1190 ca         1 L53      -0.289565
      7 C5          -2.6770   -50.9470     6.6120 ca         1 L53       0.059869
      8 C6          -2.9180   -49.8990     5.6920 ca         1 L53      -0.204350
      9 C7          -1.8920   -49.0150     5.3220 ca         1 L53      -0.209394
     10 C8          -0.5860   -49.1420     5.8570 ca         1 L53       0.018139
     11 C9           0.6250   -48.3730     5.7580 cd         1 L53      -0.161005
     12 C10          0.7780   -47.0670     5.0310 c3         1 L53       0.076207
     13 C11          0.7970   -45.8570     5.9950 c3         1 L53      -0.018238
     14 C12         -0.4750   -45.7290     6.8380 c3         1 L53      -0.164931
     15 O3          -1.5900   -45.4590     5.9970 os         1 L53      -0.335205
     16 C13         -2.8370   -45.4840     6.5820 ca         1 L53       0.541117
     17 C16         -3.0790   -45.8230     7.9360 ca         1 L53      -0.588887
     18 C15         -4.3930   -45.8530     8.4570 ca         1 L53       0.381868
     19 CC1         -4.6030   -46.2700     9.9010 c3         1 L53      -0.241225
     20 C14         -5.4830   -45.5150     7.6280 ca         1 L53      -0.285482
     21 CL1         -7.0950   -45.5510     8.2640 cl         1 L53      -0.130485
     22 C17         -5.2570   -45.1560     6.2820 ca         1 L53       0.381868
     23 CH1         -6.4200   -44.7790     5.3750 c3         1 L53      -0.241225
     24 C18         -3.9410   -45.1540     5.7670 ca         1 L53      -0.588887
     25 CL3         -3.9550   -51.9810     7.1110 cl         1 L53      -0.187183
     26 H1          -1.1750   -51.9200     7.8220 ha         1 L53       0.173548
     27 H3          -3.9170   -49.7600     5.2950 ha         1 L53       0.140124
     28 H4          -2.1000   -48.2000     4.6420 ha         1 L53       0.180408
     29 H5          -0.0540   -46.9550     4.3230 hc         1 L53       0.003472
     30 H6           1.6870   -47.0740     4.4240 hc         1 L53       0.003472
     31 H7           0.9690   -44.9410     5.4360 hc         1 L53       0.051568
     32 H8           1.6540   -45.9580     6.6660 hc         1 L53       0.051568
     33 H9          -0.3570   -44.9150     7.5570 h1         1 L53       0.127297
     34 H10         -0.6040   -46.6480     7.4050 h1         1 L53       0.127297
     35 H11         -2.2740   -46.0800     8.6020 ha         1 L53       0.211609
     36 HC1         -5.1150   -45.4820    10.4590 hc         1 L53       0.072265
     37 HC2         -5.2130   -47.1750     9.9470 hc         1 L53       0.072265
     38 HC3         -3.6580   -46.4780    10.4010 hc         1 L53       0.072265
     39 HH1         -6.0750   -44.5140     4.3760 hc         1 L53       0.072265
     40 HH2         -7.1160   -45.6150     5.2840 hc         1 L53       0.072265
     41 HH3         -6.9560   -43.9220     5.7860 hc         1 L53       0.072265
     42 H19         -3.7750   -44.8950     4.7280 ha         1 L53       0.211609
     43 N1           0.9880   -50.1300     7.0840 na         1 L53      -0.539992
     44 H            1.5180   -50.7410     7.6870 hn         1 L53       0.387797
@<TRIPOS>BOND
     1     1     2 1   
     2     2     3 1   
     3     2     4 1   
     4     4    11 2   
     5     4    43 1   
     6     5     6 ar  
     7     5    10 ar  
     8     5    43 1   
     9     6     7 ar  
    10     6    26 1   
    11     7     8 ar  
    12     7    25 1   
    13     8     9 ar  
    14     8    27 1   
    15     9    10 ar  
    16     9    28 1   
    17    10    11 1   
    18    11    12 1   
    19    12    13 1   
    20    12    29 1   
    21    12    30 1   
    22    13    14 1   
    23    13    31 1   
    24    13    32 1   
    25    14    15 1   
    26    14    33 1   
    27    14    34 1   
    28    15    16 1   
    29    16    17 ar  
    30    16    24 ar  
    31    17    18 ar  
    32    17    35 1   
    33    18    19 1   
    34    18    20 ar  
    35    19    36 1   
    36    19    37 1   
    37    19    38 1   
    38    20    21 1   
    39    20    22 ar  
    40    22    23 1   
    41    22    24 ar  
    42    23    39 1   
    43    23    40 1   
    44    23    41 1   
    45    24    42 1   
    46    43    44 1   
@<TRIPOS>SUBSTRUCTURE
     1 L53         1 TEMP              0 ****  ****    0 ROOT
