@<TRIPOS>MOLECULE
2M
   50    54     1     0     0
SMALL
resp


@<TRIPOS>ATOM
      1 C5           38.260     36.710     17.010 ca         1 2M      -0.509952
      2 C6           34.540     34.970     21.180 c          1 2M       0.664990
      3 C7           37.590     36.180     18.130 ca         1 2M       0.388403
      4 C8           34.040     38.970     23.730 ca         1 2M       1.007983
      5 C10          34.800     37.810     21.440 ca         1 2M      -0.375644
      6 C11          35.250     37.120     20.230 cc         1 2M      -0.224405
      7 C12          37.620     36.740     15.750 ca         1 2M       0.461645
      8 C13          36.320     36.210     15.620 ca         1 2M      -0.406486
      9 C14          35.670     35.660     16.740 ca         1 2M      -0.130100
     10 C15          34.300     37.030     22.510 ca         1 2M       0.472104
     11 C16          34.850     39.200     21.610 ca         1 2M       0.421327
     12 C17          35.160     35.780     20.120 cd         1 2M       0.116857
     13 C18          36.290     35.660     18.000 ca         1 2M       0.121814
     14 F1           38.190     36.190     19.320 f          1 2M      -0.187793
     15 O2           35.650     35.060     19.050 os         1 2M      -0.304440
     16 N1           34.470     39.790     22.770 nb         1 2M      -0.807230
     17 O3           34.320     33.770     21.020 o          1 2M      -0.579821
     18 N2           34.210     35.610     22.340 n          1 2M      -0.231254
     19 N3           33.930     37.650     23.650 nb         1 2M      -0.521796
     20 N4           33.670     39.560     24.920 nh         1 2M      -0.958687
     21 H9           39.250     37.110     17.110 ha         1 2M       0.246341
     22 H11          35.700     37.730     19.460 ha         1 2M       0.163159
     23 H12          35.830     36.220     14.660 ha         1 2M       0.218249
     24 H13          34.690     35.230     16.620 ha         1 2M       0.191529
     25 H14          35.210     39.850     20.830 h4         1 2M       0.102873
     26 H18          33.790     40.560     24.970 hn         1 2M       0.401816
     27 F2           38.230     37.270     14.700 f          1 2M      -0.212689
     28 C2           32.380     39.340     28.500 c3         1 2M       0.283103
     29 C1           32.880     39.990     27.200 c3         1 2M      -0.353320
     30 C9           33.160     38.930     26.120 c3         1 2M       0.592976
     31 C4           34.160     37.880     26.630 c3         1 2M      -0.353320
     32 C3           33.670     37.230     27.930 c3         1 2M       0.283103
     33 O1           33.390     38.290     29.010 os         1 2M      -0.466262
     34 CA1          33.670     34.840     23.440 cx         1 2M      -0.081995
     35 CA2          33.330     35.610     24.680 cx         1 2M      -0.241177
     36 CA3          34.550     34.730     24.660 cx         1 2M      -0.241177
     37 H3           31.400     38.850     28.320 h1         1 2M       0.000038
     38 H4           32.220     40.120     29.280 h1         1 2M       0.000038
     39 H1           33.810     40.570     27.400 hc         1 2M       0.106344
     40 H2           32.120     40.720     26.820 hc         1 2M       0.106344
     41 H10          32.200     38.420     25.840 h1         1 2M      -0.019377
     42 H7           34.330     37.100     25.850 hc         1 2M       0.106344
     43 H8           35.150     38.370     26.810 hc         1 2M       0.106344
     44 H5           32.730     36.650     27.730 h1         1 2M       0.000038
     45 H6           34.420     36.500     28.310 h1         1 2M       0.000038
     46 HA1          33.030     33.950     23.220 h1         1 2M       0.197551
     47 HA2          33.520     36.710     24.640 hc         1 2M       0.111393
     48 HA3          32.460     35.230     25.270 hc         1 2M       0.111393
     49 HA4          35.530     35.260     24.600 hc         1 2M       0.111393
     50 HA5          34.480     33.780     25.230 hc         1 2M       0.111393
@<TRIPOS>BOND
     1     1     3 ar  
     2     1     7 ar  
     3     1    21 1   
     4     2    12 1   
     5     2    17 2   
     6     2    18 1   
     7     3    13 ar  
     8     3    14 1   
     9     4    16 ar  
    10     4    19 ar  
    11     4    20 1   
    12     5     6 1   
    13     5    10 ar  
    14     5    11 ar  
    15     6    12 2   
    16     6    22 1   
    17     7     8 ar  
    18     7    27 1   
    19     8     9 ar  
    20     8    23 1   
    21     9    13 ar  
    22     9    24 1   
    23    10    18 1   
    24    10    19 ar  
    25    11    16 ar  
    26    11    25 1   
    27    12    15 1   
    28    13    15 1   
    29    18    34 1   
    30    20    26 1   
    31    20    30 1   
    32    28    29 1   
    33    28    33 1   
    34    28    37 1   
    35    28    38 1   
    36    29    30 1   
    37    29    39 1   
    38    29    40 1   
    39    30    31 1   
    40    30    41 1   
    41    31    32 1   
    42    31    42 1   
    43    31    43 1   
    44    32    33 1   
    45    32    44 1   
    46    32    45 1   
    47    34    35 1   
    48    34    36 1   
    49    34    46 1   
    50    35    36 1   
    51    35    47 1   
    52    35    48 1   
    53    36    49 1   
    54    36    50 1   
@<TRIPOS>SUBSTRUCTURE
     1 2M         1 TEMP              0 ****  ****    0 ROOT
