@<TRIPOS>MOLECULE
L27
   38    40     1     0     0
SMALL
resp


@<TRIPOS>ATOM
      1 O1           3.5620   -47.7650     6.2860 o          1 L27      -0.795929
      2 C1           3.0110   -48.7680     6.7910 c          1 L27       0.878230
      3 O2           3.6270   -49.5210     7.5840 o          1 L27      -0.795929
      4 C2           1.5990   -49.0920     6.4610 cc         1 L27       0.029545
      5 C3          -0.2460   -50.4440     6.5730 ca         1 L27       0.369347
      6 C4          -1.2010   -51.4540     6.8290 ca         1 L27      -0.390179
      7 C5          -2.4850   -51.3550     6.2580 ca         1 L27      -0.112986
      8 C6          -2.8080   -50.2420     5.4530 ca         1 L27      -0.268344
      9 C7          -1.8540   -49.2330     5.2140 ca         1 L27      -0.170266
     10 C8          -0.5510   -49.3040     5.7660 ca         1 L27       0.006297
     11 C9           0.6240   -48.4630     5.7170 cd         1 L27      -0.173971
     12 C10          0.7440   -47.1490     4.9890 c3         1 L27       0.075161
     13 C11          0.8630   -45.9370     5.9350 c3         1 L27      -0.012629
     14 C12         -0.3440   -45.7460     6.8600 c3         1 L27      -0.056830
     15 O3          -1.4740   -45.3700     6.0780 os         1 L27      -0.392792
     16 C13         -2.6660   -45.1790     6.7320 ca         1 L27       0.477351
     17 C16         -2.8940   -45.5090     8.0960 ca         1 L27      -0.334670
     18 C15         -4.1490   -45.2840     8.6880 ca         1 L27      -0.064451
     19 C14         -5.1950   -44.7220     7.9310 ca         1 L27      -0.270981
     20 C17         -4.9830   -44.3900     6.5800 ca         1 L27      -0.064451
     21 C18         -3.7290   -44.6250     5.9880 ca         1 L27      -0.334670
     22 H1          -0.9290   -52.3020     7.4430 ha         1 L27       0.176825
     23 H2          -3.2130   -52.1250     6.4480 ha         1 L27       0.119693
     24 H3          -3.7940   -50.1700     5.0200 ha         1 L27       0.136047
     25 H4          -2.1170   -48.3840     4.5920 ha         1 L27       0.161307
     26 H5          -0.1080   -47.0090     4.3240 hc         1 L27       0.003179
     27 H6           1.6130   -47.1680     4.3350 hc         1 L27       0.003179
     28 H7           1.0220   -45.0320     5.3510 hc         1 L27       0.041793
     29 H8           1.7510   -46.0360     6.5560 hc         1 L27       0.041793
     30 H9          -0.1280   -44.9550     7.5800 h1         1 L27       0.090752
     31 H10         -0.5290   -46.6680     7.4150 h1         1 L27       0.090752
     32 H11         -2.1220   -45.9410     8.7150 ha         1 L27       0.158736
     33 H19         -3.5750   -44.3710     4.9500 ha         1 L27       0.158736
     34 H22         -5.7820   -43.9590     5.9960 ha         1 L27       0.127933
     35 H13         -6.1590   -44.5450     8.3870 ha         1 L27       0.141610
     36 H12         -4.3160   -45.5490     9.7200 ha         1 L27       0.127933
     37 N1           1.0680   -50.2720     6.9800 na         1 L27      -0.559703
     38 H            1.6380   -50.8970     7.5490 hn         1 L27       0.382583
@<TRIPOS>BOND
     1     1     2 1   
     2     2     3 1   
     3     2     4 1   
     4     4    11 2   
     5     4    37 1   
     6     5     6 ar  
     7     5    10 ar  
     8     5    37 1   
     9     6     7 ar  
    10     6    22 1   
    11     7     8 ar  
    12     7    23 1   
    13     8     9 ar  
    14     8    24 1   
    15     9    10 ar  
    16     9    25 1   
    17    10    11 1   
    18    11    12 1   
    19    12    13 1   
    20    12    26 1   
    21    12    27 1   
    22    13    14 1   
    23    13    28 1   
    24    13    29 1   
    25    14    15 1   
    26    14    30 1   
    27    14    31 1   
    28    15    16 1   
    29    16    17 ar  
    30    16    21 ar  
    31    17    18 ar  
    32    17    32 1   
    33    18    19 ar  
    34    18    36 1   
    35    19    20 ar  
    36    19    35 1   
    37    20    21 ar  
    38    20    34 1   
    39    21    33 1   
    40    37    38 1   
@<TRIPOS>SUBSTRUCTURE
     1 L27         1 TEMP              0 ****  ****    0 ROOT
