@<TRIPOS>MOLECULE
2H
   46    49     1     0     0
SMALL
resp


@<TRIPOS>ATOM
      1  C1         31.6240    38.9530    26.1540 c3         1 2H      -0.325805
      2  C2         31.0950    38.3550    27.4680 c3         1 2H       0.260645
      3  C3         33.0540    38.9790    28.6540 c3         1 2H       0.260645
      4  C4         33.6810    39.6140    27.4030 c3         1 2H      -0.325805
      5  AC5        38.5470    36.6890    16.4810 ca         1 2H      -0.325330
      6  O1         31.6350    39.0630    28.5780 os         1 2H      -0.461506
      7  C6         34.5450    34.9770    21.1830 c          1 2H       0.739630
      8  AC7        37.8800    36.1640    17.6050 ca         1 2H       0.339800
      9  C8         34.0440    38.9760    23.7380 ca         1 2H       1.168159
     10  C9         33.1560    38.9290    26.1330 c3         1 2H       0.610323
     11  C10        34.8030    37.8110    21.4410 ca         1 2H      -0.482191
     12  C11        35.2540    37.1250    20.2340 cc         1 2H       0.021102
     13 AC12        37.9070    36.7180    15.2270 ca         1 2H      -0.086509
     14 AC13        36.6110    36.1910    15.0910 ca         1 2H      -0.262828
     15 AC14        35.9550    35.6430    16.2080 ca         1 2H      -0.094893
     16  C15        34.3070    37.0370    22.5110 ca         1 2H       0.619917
     17  C16        34.8520    39.2090    21.6170 ca         1 2H       0.441560
     18  C17        35.1650    35.7820    20.1250 cd         1 2H      -0.246015
     19 AC18        36.5770    35.6390    17.4710 ca         1 2H       0.145413
     20  C19        33.6690    34.8320    23.4620 c3         1 2H      -0.224012
     21  AF1        38.4800    36.1720    18.7960 f          1 2H      -0.208229
     22  S2         35.7700    34.8840    18.7890 ss         1 2H      -0.195249
     23  N1         34.4790    39.7920    22.7770 nb         1 2H      -0.843356
     24  O3         34.3290    33.7760    21.0230 o          1 2H      -0.533155
     25  N2         34.2120    35.6180    22.3420 n          1 2H      -0.238100
     26  N3         33.9310    37.6500    23.6560 nb         1 2H      -0.755945
     27  N4         33.6720    39.5650    24.9270 nh         1 2H      -0.994946
     28  H1         31.2200    38.4000    25.3050 hc         1 2H       0.098967
     29  H2         31.2770    39.9810    26.0540 hc         1 2H       0.098967
     30  H3         30.0100    38.4340    27.5070 h1         1 2H       0.005586
     31  H4         31.3430    37.2950    27.5440 h1         1 2H       0.005586
     32  H5         33.3650    37.9380    28.7610 h1         1 2H       0.005586
     33  H6         33.3890    39.5050    29.5480 h1         1 2H       0.005586
     34  H7         33.4270    40.6740    27.3920 hc         1 2H       0.098967
     35  H8         34.7680    39.5450    27.4510 hc         1 2H       0.098967
     36  AH9        39.5420    37.0910    16.5850 ha         1 2H       0.192888
     37  H10        33.4880    37.8900    26.1540 h1         1 2H      -0.037959
     38  H11        35.7030    37.7360    19.4670 ha         1 2H       0.115072
     39 AH12        36.1210    36.2000    14.1280 ha         1 2H       0.176347
     40 AH13        34.9750    35.2050    16.0910 ha         1 2H       0.130429
     41  H14        35.2180    39.8560    20.8360 h4         1 2H       0.101020
     42  H15        34.0540    35.1880    24.4180 h1         1 2H       0.112912
     43  H16        32.5820    34.9190    23.4830 h1         1 2H       0.112912
     44  H17        33.9200    33.7710    23.4230 h1         1 2H       0.112912
     45  H18        33.7900    40.5680    24.9710 hn         1 2H       0.402451
     46 AH52        38.4040    37.1480    14.3710 ha         1 2H       0.159484
@<TRIPOS>BOND
     1     1     2 1   
     2     1    10 1   
     3     1    28 1   
     4     1    29 1   
     5     2     6 1   
     6     2    30 1   
     7     2    31 1   
     8     3     4 1   
     9     3     6 1   
    10     3    32 1   
    11     3    33 1   
    12     4    10 1   
    13     4    34 1   
    14     4    35 1   
    15     5     8 ar  
    16     5    13 ar  
    17     5    36 1   
    18     7    18 1   
    19     7    24 2   
    20     7    25 1   
    21     8    19 ar  
    22     8    21 1   
    23     9    23 ar  
    24     9    26 ar  
    25     9    27 1   
    26    10    27 1   
    27    10    37 1   
    28    11    12 1   
    29    11    16 ar  
    30    11    17 ar  
    31    12    18 2   
    32    12    38 1   
    33    13    14 ar  
    34    13    46 1   
    35    14    15 ar  
    36    14    39 1   
    37    15    19 ar  
    38    15    40 1   
    39    16    25 1   
    40    16    26 ar  
    41    17    23 ar  
    42    17    41 1   
    43    18    22 1   
    44    19    22 1   
    45    20    25 1   
    46    20    42 1   
    47    20    43 1   
    48    20    44 1   
    49    27    45 1   
@<TRIPOS>SUBSTRUCTURE
     1 2H         1 TEMP              0 ****  ****    0 ROOT
