@<TRIPOS>MOLECULE
L52
   41    43     1     0     0
SMALL
resp


@<TRIPOS>ATOM
      1 O1           3.6520   -50.1730     7.5910 o          1 L52      -0.792147
      2 C1           3.0430   -49.1960     7.1020 c          1 L52       0.879260
      3 O2           3.5660   -48.0690     6.9870 o          1 L52      -0.792147
      4 C2           1.6480   -49.3720     6.6570 cc         1 L52       0.037986
      5 C3          -0.3320   -50.4840     6.5820 ca         1 L52       0.254789
      6 C4          -1.4110   -51.3650     6.7490 ca         1 L52      -0.274029
      7 C5          -2.6840   -50.9780     6.2980 ca         1 L52       0.052178
      8 C6          -2.8680   -49.7470     5.6360 ca         1 L52      -0.181118
      9 C7          -1.7780   -48.8760     5.4640 ca         1 L52      -0.263753
     10 C8          -0.4900   -49.2180     5.9480 ca         1 L52       0.093558
     11 C9           0.7780   -48.5420     5.9920 cd         1 L52      -0.280269
     12 C10          1.0470   -47.1570     5.5150 c3         1 L52       0.127102
     13 C11          1.0220   -46.1840     6.7040 c3         1 L52       0.103042
     14 C12          0.4480   -44.8210     6.3100 c3         1 L52      -0.070109
     15 O3          -0.8650   -44.8820     5.7760 os         1 L52      -0.486128
     16 C13         -1.9430   -45.1810     6.5880 ca         1 L52       0.657964
     17 C18         -3.2160   -45.1420     5.9800 ca         1 L52      -0.630383
     18 C17         -4.3940   -45.3530     6.7340 ca         1 L52       0.409151
     19 CH1         -5.7490   -45.1800     6.0710 c3         1 L52      -0.368449
     20 C14         -4.2870   -45.6870     8.1030 ca         1 L52      -0.184897
     21 CL1         -5.6900   -46.0040     9.0600 cl         1 L52      -0.144116
     22 C15         -3.0250   -45.7410     8.7160 ca         1 L52      -0.031206
     23 C16         -1.8650   -45.4530     7.9750 ca         1 L52      -0.437053
     24 CL3         -4.0420   -51.9830     6.5890 cl         1 L52      -0.188987
     25 H1          -1.2650   -52.3090     7.2560 ha         1 L52       0.172665
     26 H3          -3.8530   -49.4580     5.2950 ha         1 L52       0.136903
     27 H4          -1.9290   -47.9160     4.9820 ha         1 L52       0.182062
     28 H5           0.2990   -46.8850     4.7740 hc         1 L52       0.020639
     29 H6           2.0100   -47.0970     4.9990 hc         1 L52       0.020639
     30 H7           2.0270   -46.0520     7.1040 hc         1 L52      -0.013750
     31 H8           0.4500   -46.6230     7.5180 hc         1 L52      -0.013750
     32 H9           1.1110   -44.4320     5.5440 h1         1 L52       0.114110
     33 H10          0.4850   -44.0900     7.1000 h1         1 L52       0.114110
     34 H19         -3.2890   -44.9080     4.9280 ha         1 L52       0.229346
     35 HH1         -6.4350   -45.9830     6.3550 hc         1 L52       0.106989
     36 HH2         -6.1890   -44.2320     6.3830 hc         1 L52       0.106989
     37 HH3         -5.6730   -45.1750     4.9830 hc         1 L52       0.106989
     38 H11         -0.9260   -45.4280     8.5060 ha         1 L52       0.201888
     39 H12         -2.9410   -45.9830     9.7650 ha         1 L52       0.151672
     40 N1           0.9960   -50.5550     6.9560 na         1 L52      -0.508324
     41 H            1.4810   -51.2970     7.4420 hn         1 L52       0.380585
@<TRIPOS>BOND
     1     1     2 1   
     2     2     3 1   
     3     2     4 1   
     4     4    11 2   
     5     4    40 1   
     6     5     6 ar  
     7     5    10 ar  
     8     5    40 1   
     9     6     7 ar  
    10     6    25 1   
    11     7     8 ar  
    12     7    24 1   
    13     8     9 ar  
    14     8    26 1   
    15     9    10 ar  
    16     9    27 1   
    17    10    11 1   
    18    11    12 1   
    19    12    13 1   
    20    12    28 1   
    21    12    29 1   
    22    13    14 1   
    23    13    30 1   
    24    13    31 1   
    25    14    15 1   
    26    14    32 1   
    27    14    33 1   
    28    15    16 1   
    29    16    17 ar  
    30    16    23 ar  
    31    17    18 ar  
    32    17    34 1   
    33    18    19 1   
    34    18    20 ar  
    35    19    35 1   
    36    19    36 1   
    37    19    37 1   
    38    20    21 1   
    39    20    22 ar  
    40    22    23 ar  
    41    22    39 1   
    42    23    38 1   
    43    40    41 1   
@<TRIPOS>SUBSTRUCTURE
     1 L52         1 TEMP              0 ****  ****    0 ROOT
