@<TRIPOS>MOLECULE
L34
   41    43     1     0     0
SMALL
resp


@<TRIPOS>ATOM
      1 O1           3.8540   -50.1660     7.1650 o          1 L34      -0.797746
      2 C1           3.1290   -49.1920     6.8520 c          1 L34       0.881130
      3 O2           3.5610   -48.0250     6.8260 o          1 L34      -0.797746
      4 C2           1.7070   -49.4720     6.5210 cc         1 L34       0.070521
      5 C3          -0.0960   -50.8630     6.3290 ca         1 L34       0.356611
      6 C4          -1.0020   -51.9380     6.3220 ca         1 L34      -0.377408
      7 C5          -2.3610   -51.6990     5.9960 ca         1 L34      -0.119291
      8 C6          -2.7800   -50.3970     5.6680 ca         1 L34      -0.255487
      9 C7          -1.8650   -49.3290     5.6660 ca         1 L34      -0.208980
     10 C8          -0.4960   -49.5350     6.0070 ca         1 L34       0.074477
     11 C9           0.6530   -48.6750     6.1160 cd         1 L34      -0.317384
     12 C10          0.6650   -47.2010     5.8560 c3         1 L34       0.112152
     13 C11          0.2400   -46.4060     7.0970 c3         1 L34       0.091477
     14 C12         -0.3170   -45.0240     6.7320 c3         1 L34      -0.035899
     15 O3          -1.5240   -45.1760     5.9860 os         1 L34      -0.518766
     16 C13         -2.7270   -45.1910     6.6620 ca         1 L34       0.601256
     17 C16         -2.8650   -45.3930     8.0560 ca         1 L34      -0.353606
     18 C15         -4.1360   -45.3620     8.6630 ca         1 L34      -0.108159
     19 C14         -5.2910   -45.1170     7.8890 ca         1 L34      -0.160200
     20 C17         -5.1600   -44.9490     6.4970 ca         1 L34      -0.108159
     21 C18         -3.8900   -44.9920     5.8880 ca         1 L34      -0.353606
     22 H1          -0.6670   -52.9300     6.5670 ha         1 L34       0.174870
     23 H2          -3.0650   -52.5180     5.9990 ha         1 L34       0.120497
     24 H3          -3.8210   -50.2190     5.4110 ha         1 L34       0.134644
     25 H4          -2.2080   -48.3360     5.4100 ha         1 L34       0.158967
     26 H5          -0.0010   -46.9820     5.0180 hc         1 L34       0.028224
     27 H6           1.6520   -46.8640     5.5320 hc         1 L34       0.028224
     28 H7           1.0840   -46.3140     7.7800 hc         1 L34      -0.010599
     29 H8          -0.5260   -46.9610     7.6400 hc         1 L34      -0.010599
     30 H9           0.4060   -44.4960     6.1070 h1         1 L34       0.111547
     31 H10         -0.4480   -44.4040     7.6180 h1         1 L34       0.111547
     32 H11         -2.0040   -45.5770     8.6830 ha         1 L34       0.179900
     33 H19         -3.8070   -44.8520     4.8210 ha         1 L34       0.179900
     34 H22         -6.0380   -44.7690     5.8960 ha         1 L34       0.159642
     35 H12         -4.2090   -45.5130     9.7300 ha         1 L34       0.159642
     36 N1           1.2570   -50.7780     6.6180 na         1 L34      -0.567017
     37 H            1.8850   -51.5330     6.8800 hn         1 L34       0.386221
     38 CF1         -6.6670   -45.0310     8.5320 c3         1 L34       0.702176
     39 FF1         -7.4790   -45.9220     7.9590 f          1 L34      -0.240991
     40 FF2         -6.6160   -45.2720     9.8430 f          1 L34      -0.240991
     41 FF3         -7.1580   -43.8050     8.3410 f          1 L34      -0.240991
@<TRIPOS>BOND
     1     1     2 1   
     2     2     3 1   
     3     2     4 1   
     4     4    11 2   
     5     4    36 1   
     6     5     6 ar  
     7     5    10 ar  
     8     5    36 1   
     9     6     7 ar  
    10     6    22 1   
    11     7     8 ar  
    12     7    23 1   
    13     8     9 ar  
    14     8    24 1   
    15     9    10 ar  
    16     9    25 1   
    17    10    11 1   
    18    11    12 1   
    19    12    13 1   
    20    12    26 1   
    21    12    27 1   
    22    13    14 1   
    23    13    28 1   
    24    13    29 1   
    25    14    15 1   
    26    14    30 1   
    27    14    31 1   
    28    15    16 1   
    29    16    17 ar  
    30    16    21 ar  
    31    17    18 ar  
    32    17    32 1   
    33    18    19 ar  
    34    18    35 1   
    35    19    20 ar  
    36    19    38 1   
    37    20    21 ar  
    38    20    34 1   
    39    21    33 1   
    40    36    37 1   
    41    38    39 1   
    42    38    40 1   
    43    38    41 1   
@<TRIPOS>SUBSTRUCTURE
     1 L34         1 TEMP              0 ****  ****    0 ROOT
