@<TRIPOS>MOLECULE
L86
   60    63     1     0     0
SMALL
resp


@<TRIPOS>ATOM
      1  O2         41.3720    17.7860    11.8180 o          1 L86      -0.863254
      2  C1         40.5610    17.6340    12.7590 c          1 L86       0.930356
      3  O1         39.4800    18.2500    12.8840 o          1 L86      -0.863254
      4  C2         40.9140    16.6420    13.8690 c3         1 L86       0.001767
      5  O3         42.1430    15.9800    13.5990 os         1 L86      -0.328716
      6  C3         42.5070    15.0960    14.5540 cc         1 L86       0.240624
      7  C6         42.1050    13.7640    14.6030 cc         1 L86      -0.008433
      8  CL1        41.1940    13.1080    13.3220 cl         1 L86      -0.116621
      9  C5         42.4740    13.0430    15.7310 cd         1 L86      -0.063031
     10  C8         42.1340    11.6810    16.1190 ca         1 L86       0.098687
     11  C9         43.0990    10.8230    16.6550 ca         1 L86      -0.112714
     12  C10        42.7730     9.5140    17.0060 ca         1 L86      -0.178726
     13  C11        41.4770     9.0400    16.8070 ca         1 L86      -0.336380
     14  C12        40.4940     9.8790    16.2660 ca         1 L86       0.431871
     15  N1         39.1730     9.4610    16.0230 nh         1 L86      -0.922038
     16  CK1        38.8800     8.0710    15.6820 c3         1 L86       0.508544
     17  CK2        37.3500     7.8630    15.5710 c3         1 L86      -0.341722
     18  CK3        36.9750     6.4540    15.0730 c3         1 L86       0.107424
     19  NK         37.7100     6.1240    13.8430 n3         1 L86      -0.394762
     20  SR         36.9760     5.2050    12.5890 s6         1 L86       1.121354
     21  OR2        37.8360     5.3260    11.4040 o          1 L86      -0.576641
     22  OR1        35.5550     5.5860    12.5170 o          1 L86      -0.576641
     23 CV14        37.1040     3.4730    13.2180 c3         1 L86      -0.238631
     24 CV15        36.7140     2.5270    12.1000 ca         1 L86       0.131128
     25 CV16        35.3720     2.1870    11.9060 ca         1 L86      -0.170471
     26 CV17        35.0070     1.3510    10.8510 ca         1 L86      -0.139397
     27 CV18        35.9840     0.8540     9.9890 ca         1 L86      -0.138535
     28 CV19        37.3260     1.1810    10.1830 ca         1 L86      -0.139397
     29 CV20        37.6910     2.0150    11.2400 ca         1 L86      -0.170471
     30  CK4        39.1750     6.2320    13.9220 c3         1 L86       0.107424
     31  CK5        39.5890     7.6410    14.3720 c3         1 L86      -0.341722
     32  C13        40.8300    11.1970    15.9490 ca         1 L86      -0.284313
     33  S1         43.4980    14.0500    16.7180 ss         1 L86      -0.147133
     34  C4         43.3220    15.4160    15.6300 cd         1 L86      -0.113439
     35  C7         44.0370    16.6600    16.0000 c          1 L86       0.807957
     36  O5         44.7230    16.6700    17.0450 o          1 L86      -0.751872
     37  O4         43.9380    17.6670    15.2620 o          1 L86      -0.751872
     38  H1         40.1100    15.9100    13.9590 h1         1 L86       0.038238
     39  H2         40.9710    17.1830    14.8150 h1         1 L86       0.038238
     40  H3         44.1110    11.1700    16.8080 ha         1 L86       0.121987
     41  H4         43.5250     8.8660    17.4310 ha         1 L86       0.139518
     42  H5         41.2430     8.0200    17.0740 ha         1 L86       0.171019
     43  HN2        38.4430    10.1500    16.1370 hn         1 L86       0.386740
     44 HK11        39.2590     7.4690    16.5080 h1         1 L86      -0.008184
     45 HK21        36.8770     8.0460    16.5360 hc         1 L86       0.122421
     46 HK22        36.9350     8.6030    14.8870 hc         1 L86       0.122421
     47 HK31        37.2040     5.6980    15.8230 h1         1 L86       0.046767
     48 HK32        35.9000     6.3860    14.9020 h1         1 L86       0.046767
     49 HV13        38.1410     3.3050    13.5070 h1         1 L86       0.083996
     50 HV14        36.4980     3.3760    14.1190 h1         1 L86       0.083996
     51 HV15        34.6150     2.5650    12.5780 ha         1 L86       0.148590
     52 HV16        33.9700     1.0890    10.7030 ha         1 L86       0.135354
     53 HV17        35.7020     0.2170     9.1650 ha         1 L86       0.130224
     54 HV18        38.0780     0.7900     9.5140 ha         1 L86       0.135354
     55 HV19        38.7330     2.2600    11.3890 ha         1 L86       0.148590
     56 HK41        39.5250     5.4660    14.6130 h1         1 L86       0.046767
     57 HK42        39.6130     5.9830    12.9550 h1         1 L86       0.046767
     58 HK52        39.3500     8.3540    13.5830 hc         1 L86       0.122421
     59 HK51        40.6710     7.6850    14.4990 hc         1 L86       0.122421
     60  H6         40.0960    11.8770    15.5520 ha         1 L86       0.152635
@<TRIPOS>BOND
     1     1     2 1   
     2     2     3 1   
     3     2     4 1   
     4     4     5 1   
     5     4    38 1   
     6     4    39 1   
     7     5     6 1   
     8     6     7 1   
     9     6    34 2   
    10     7     8 1   
    11     7     9 2   
    12     9    10 1   
    13     9    33 1   
    14    10    11 ar  
    15    10    32 ar  
    16    11    12 ar  
    17    11    40 1   
    18    12    13 ar  
    19    12    41 1   
    20    13    14 ar  
    21    13    42 1   
    22    14    15 1   
    23    14    32 ar  
    24    15    16 1   
    25    15    43 1   
    26    16    17 1   
    27    16    31 1   
    28    16    44 1   
    29    17    18 1   
    30    17    45 1   
    31    17    46 1   
    32    18    19 1   
    33    18    47 1   
    34    18    48 1   
    35    19    20 1   
    36    19    30 1   
    37    20    21 2   
    38    20    22 2   
    39    20    23 1   
    40    23    24 1   
    41    23    49 1   
    42    23    50 1   
    43    24    25 ar  
    44    24    29 ar  
    45    25    26 ar  
    46    25    51 1   
    47    26    27 ar  
    48    26    52 1   
    49    27    28 ar  
    50    27    53 1   
    51    28    29 ar  
    52    28    54 1   
    53    29    55 1   
    54    30    31 1   
    55    30    56 1   
    56    30    57 1   
    57    31    58 1   
    58    31    59 1   
    59    32    60 1   
    60    33    34 1   
    61    34    35 1   
    62    35    36 1   
    63    35    37 1   
@<TRIPOS>SUBSTRUCTURE
     1 L86         1 TEMP              0 ****  ****    0 ROOT
