@<TRIPOS>MOLECULE
L59
   50    51     1     0     0
SMALL
resp


@<TRIPOS>ATOM
      1  CX1        25.3050    12.1340    28.3530 c3         1 L59       0.093467
      2  OX1        25.3250    12.3470    29.7610 os         1 L59      -0.450936
      3  CX2        24.0340    12.4870    30.3520 c3         1 L59       0.182176
      4  C2         23.3140    11.1390    30.5400 c3         1 L59       0.189775
      5  O1         22.1420    11.3640    31.3240 os         1 L59      -0.507195
      6  C3         21.3620    10.2950    31.7280 ca         1 L59       0.938704
      7  N1         21.7290     9.0550    31.3050 nb         1 L59      -0.790922
      8  C4         20.9670     8.0090    31.6650 ca         1 L59       0.712271
      9  C5         19.8500     8.1320    32.4810 ca         1 L59      -0.790506
     10  C6         19.4780     9.3940    32.9060 ca         1 L59       0.757834
     11  N2         18.3320     9.4550    33.6890 nh         1 L59      -0.968924
     12  C7         20.2340    10.5140    32.5250 ca         1 L59      -0.706293
     13  C8         19.8860    11.8780    32.9070 cg         1 L59       0.531623
     14  N3         19.6190    12.9650    33.2020 n1         1 L59      -0.543809
     15  N4         21.4410     6.8350    31.1130 n          1 L59      -0.474161
     16  C9         20.8680     5.6310    31.0120 c          1 L59       0.666173
     17  O2         19.7430     5.3540    31.4250 o          1 L59      -0.595180
     18  C10        21.6640     4.5750    30.2540 c3         1 L59      -0.111203
     19  C11        23.0300     4.2830    30.8690 ca         1 L59      -0.047738
     20  C12        24.1300     5.1090    30.5870 ca         1 L59       0.140271
     21  O12        23.9130     6.2050    29.7700 os         1 L59      -0.174812
     22 C121        24.9450     7.1750    29.6060 c3         1 L59      -0.214397
     23  C13        25.3740     4.7860    31.1460 ca         1 L59      -0.151942
     24  C14        25.5060     3.6910    32.0010 ca         1 L59      -0.372506
     25  C15        24.4140     2.8780    32.2950 ca         1 L59       0.409050
     26  C16        23.1750     3.1800    31.7180 ca         1 L59      -0.279236
     27  O15        24.6370     1.8270    33.1600 os         1 L59      -0.379252
     28 C151        23.7200     0.7360    33.1700 c3         1 L59       0.041319
     29  HX1        26.3280    12.0660    27.9820 h1         1 L59       0.039322
     30  HX2        24.7970    11.2070    28.0860 h1         1 L59       0.039322
     31  HX3        24.8190    12.9600    27.8310 h1         1 L59       0.039322
     32  HX4        24.1840    12.9410    31.3310 h1         1 L59       0.045680
     33  HX5        23.4110    13.1870    29.7910 h1         1 L59       0.045680
     34  H4         23.0450    10.7050    29.5760 h1         1 L59       0.046825
     35  H5         23.9830    10.4390    31.0460 h1         1 L59       0.046825
     36  H6         19.2660     7.2740    32.7690 ha         1 L59       0.304488
     37  H7         17.8700     8.5990    33.9830 hn         1 L59       0.430679
     38  H8         17.9380    10.3550    33.9550 hn         1 L59       0.430679
     39  H9         22.3550     6.9470    30.7000 hn         1 L59       0.232260
     40  H10        21.0890     3.6570    30.1680 hc         1 L59       0.062900
     41  H11        21.7920     4.9560    29.2450 hc         1 L59       0.062900
     42 H121        25.8240     6.7510    29.1170 h1         1 L59       0.117451
     43 H122        25.2400     7.6160    30.5590 h1         1 L59       0.117451
     44 H123        24.5800     7.9840    28.9740 h1         1 L59       0.117451
     45  H13        26.2500     5.3810    30.9350 ha         1 L59       0.165468
     46  H14        26.4650     3.4600    32.4410 ha         1 L59       0.198726
     47  H16        22.3170     2.5590    31.9240 ha         1 L59       0.169203
     48 H151        24.0870    -0.0320    33.8520 h1         1 L59       0.061239
     49 H152        22.7280     1.0220    33.5160 h1         1 L59       0.061239
     50 H153        23.6320     0.2780    32.1860 h1         1 L59       0.061239
@<TRIPOS>BOND
     1     1     2 1   
     2     1    29 1   
     3     1    30 1   
     4     1    31 1   
     5     2     3 1   
     6     3     4 1   
     7     3    32 1   
     8     3    33 1   
     9     4     5 1   
    10     4    34 1   
    11     4    35 1   
    12     5     6 1   
    13     6     7 ar  
    14     6    12 ar  
    15     7     8 ar  
    16     8     9 ar  
    17     8    15 1   
    18     9    10 ar  
    19     9    36 1   
    20    10    11 1   
    21    10    12 ar  
    22    11    37 1   
    23    11    38 1   
    24    12    13 1   
    25    13    14 3   
    26    15    16 1   
    27    15    39 1   
    28    16    17 2   
    29    16    18 1   
    30    18    19 1   
    31    18    40 1   
    32    18    41 1   
    33    19    20 ar  
    34    19    26 ar  
    35    20    21 1   
    36    20    23 ar  
    37    21    22 1   
    38    22    42 1   
    39    22    43 1   
    40    22    44 1   
    41    23    24 ar  
    42    23    45 1   
    43    24    25 ar  
    44    24    46 1   
    45    25    26 ar  
    46    25    27 1   
    47    26    47 1   
    48    27    28 1   
    49    28    48 1   
    50    28    49 1   
    51    28    50 1   
@<TRIPOS>SUBSTRUCTURE
     1 L59         1 TEMP              0 ****  ****    0 ROOT
