@<TRIPOS>MOLECULE
U24
   46    47     1     0     0
SMALL
resp


@<TRIPOS>ATOM
      1  C1         24.0820    12.3920    30.2420 c3         1 U24      -0.377349
      2  C2         23.3500    11.0660    30.4630 c3         1 U24       0.426676
      3  O1         22.2120    11.3270    31.2790 os         1 U24      -0.446667
      4  C3         21.4130    10.2770    31.6980 ca         1 U24       0.844338
      5  N1         21.7570     9.0270    31.2850 nb         1 U24      -0.778104
      6  C4         20.9810     7.9970    31.6570 ca         1 U24       0.744130
      7  C5         19.8710     8.1420    32.4770 ca         1 U24      -0.798337
      8  C6         19.5220     9.4140    32.8940 ca         1 U24       0.742792
      9  N2         18.3830     9.4960    33.6860 nh         1 U24      -0.955365
     10  C7         20.2920    10.5200    32.5000 ca         1 U24      -0.652184
     11  C8         19.9660    11.8900    32.8770 cg         1 U24       0.501220
     12  N3         19.7140    12.9810    33.1710 n1         1 U24      -0.532043
     13  N4         21.4430     6.8150    31.1150 n          1 U24      -0.532271
     14  C9         20.8640     5.6150    31.0310 c          1 U24       0.702367
     15  O2         19.7400     5.3500    31.4510 o          1 U24      -0.600522
     16  C10        21.6500     4.5470    30.2800 c3         1 U24      -0.165556
     17  C11        23.0250     4.2590    30.8770 ca         1 U24       0.054781
     18  C12        24.1220     5.0800    30.5740 ca         1 U24       0.074685
     19  O12        23.8940     6.1750    29.7600 os         1 U24      -0.168831
     20 C121        24.9260     7.1420    29.5740 c3         1 U24      -0.235775
     21  C13        25.3760     4.7490    31.1030 ca         1 U24       0.034381
     22  C14        25.5280     3.6470    31.9430 ca         1 U24      -0.445112
     23 BR14        27.2650     3.2510    32.6230 br         1 U24      -0.019518
     24  C15        24.4330     2.8400    32.2700 ca         1 U24       0.608187
     25  C16        23.1820     3.1560    31.7230 ca         1 U24      -0.416244
     26  O15        24.6460     1.7800    33.1310 os         1 U24      -0.334982
     27 C151        23.7080     0.7070    33.1600 c3         1 U24      -0.055946
     28  H1         24.9660    12.2530    29.6210 hc         1 U24       0.100753
     29  H2         23.4330    13.1120    29.7440 hc         1 U24       0.100753
     30  H3         24.3970    12.8270    31.1900 hc         1 U24       0.100753
     31  H4         23.0420    10.6380    29.5060 h1         1 U24      -0.017615
     32  H5         24.0190    10.3520    30.9490 h1         1 U24      -0.017615
     33  H6         19.2760     7.2950    32.7750 ha         1 U24       0.307195
     34  H7         17.9030     8.6480    33.9730 hn         1 U24       0.426878
     35  H8         17.9980    10.4020    33.9430 hn         1 U24       0.426878
     36  H9         22.3520     6.9230    30.6910 hn         1 U24       0.251665
     37  H10        21.0720     3.6290    30.2150 hc         1 U24       0.074707
     38  H11        21.7630     4.9140    29.2650 hc         1 U24       0.074707
     39 H121        24.5480     7.9550    28.9540 h1         1 U24       0.126244
     40 H122        25.2470     7.5790    30.5210 h1         1 U24       0.126244
     41 H123        25.7900     6.7170    29.0620 h1         1 U24       0.126244
     42  H13        26.2490     5.3380    30.8750 ha         1 U24       0.123627
     43  H16        22.3240     2.5420    31.9460 ha         1 U24       0.196382
     44 H151        24.0780    -0.0690    33.8310 h1         1 U24       0.084484
     45 H152        22.7310     1.0100    33.5310 h1         1 U24       0.084484
     46 H153        23.5880     0.2530    32.1770 h1         1 U24       0.084484
@<TRIPOS>BOND
     1     1     2 1   
     2     1    28 1   
     3     1    29 1   
     4     1    30 1   
     5     2     3 1   
     6     2    31 1   
     7     2    32 1   
     8     3     4 1   
     9     4     5 ar  
    10     4    10 ar  
    11     5     6 ar  
    12     6     7 ar  
    13     6    13 1   
    14     7     8 ar  
    15     7    33 1   
    16     8     9 1   
    17     8    10 ar  
    18     9    34 1   
    19     9    35 1   
    20    10    11 1   
    21    11    12 3   
    22    13    14 1   
    23    13    36 1   
    24    14    15 2   
    25    14    16 1   
    26    16    17 1   
    27    16    37 1   
    28    16    38 1   
    29    17    18 ar  
    30    17    25 ar  
    31    18    19 1   
    32    18    21 ar  
    33    19    20 1   
    34    20    39 1   
    35    20    40 1   
    36    20    41 1   
    37    21    22 ar  
    38    21    42 1   
    39    22    23 1   
    40    22    24 ar  
    41    24    25 ar  
    42    24    26 1   
    43    25    43 1   
    44    26    27 1   
    45    27    44 1   
    46    27    45 1   
    47    27    46 1   
@<TRIPOS>SUBSTRUCTURE
     1 U24         1 TEMP              0 ****  ****    0 ROOT
