@<TRIPOS>MOLECULE
L80
   50    52     1     0     0
SMALL
resp


@<TRIPOS>ATOM
      1  CN1        34.9010     4.9770    11.4170 c3         1 L80      -0.263292
      2  ON1        35.7430     5.3670    12.4890 os         1 L80      -0.349330
      3  CM2        37.0750     5.4460    12.3000 c          1 L80       0.910621
      4  OM1        37.6240     5.2030    11.2230 o          1 L80      -0.655322
      5  NK         37.7150     5.8360    13.4580 n          1 L80      -0.425632
      6  CK3        37.0170     6.1410    14.7980 c3         1 L80       0.109301
      7  CK2        37.3830     7.5400    15.3340 c3         1 L80      -0.123620
      8  CK1        38.9110     7.7620    15.4290 c3         1 L80       0.337290
      9  N1         39.1830     9.1390    15.8450 nh         1 L80      -0.897382
     10  C12        40.4830     9.5700    16.1590 ca         1 L80       0.386431
     11  C11        41.4810     8.7320    16.6730 ca         1 L80      -0.303321
     12  C10        42.7510     9.2420    16.9420 ca         1 L80      -0.209100
     13  C9         43.0420    10.5800    16.6710 ca         1 L80      -0.090947
     14  C8         42.0580    11.4350    16.1600 ca         1 L80       0.005395
     15  C5         42.3470    12.8250    15.8290 cc         1 L80       0.036629
     16  S1         43.4370    13.7820    16.8010 ss         1 L80      -0.156522
     17  C4         43.2080    15.1990    15.7940 cc         1 L80      -0.066541
     18  C7         43.9490    16.4200    16.1910 c          1 L80       0.792521
     19  O5         44.6950    16.3700    17.1930 o          1 L80      -0.752860
     20  O4         43.8160    17.4660    15.5160 o          1 L80      -0.752860
     21  C3         42.3250    14.9330    14.7530 cd         1 L80       0.231411
     22  O3         41.9120    15.8500    13.8470 os         1 L80      -0.307251
     23  C2         40.9790    16.8100    14.3370 c3         1 L80      -0.010197
     24  C1         40.2320    17.4950    13.1900 c          1 L80       0.914515
     25  O2         40.8770    17.7240    12.1430 o          1 L80      -0.854509
     26  O1         39.0260    17.7700    13.3760 o          1 L80      -0.854509
     27  C6         41.8780    13.6140    14.7800 cd         1 L80      -0.156044
     28  BR1        40.6620    12.9710    13.4580 br         1 L80      -0.052147
     29  C13        40.7760    10.9160    15.9500 ca         1 L80      -0.152432
     30  CK5        39.6100     7.4190    14.0880 c3         1 L80      -0.123620
     31  CK4        39.2400     6.0200    13.5610 c3         1 L80       0.109301
     32  HZ1        33.8620     4.9680    11.7470 h1         1 L80       0.139728
     33  HZ2        34.9870     5.6730    10.5820 h1         1 L80       0.139728
     34  HZ3        35.1550     3.9760    11.0670 h1         1 L80       0.139728
     35 HK32        35.9330     6.0670    14.7200 h1         1 L80       0.018501
     36 HK31        37.3190     5.3850    15.5230 h1         1 L80       0.018501
     37 HK22        36.9560     8.3030    14.6820 hc         1 L80       0.054289
     38 HK21        36.9350     7.6920    16.3160 hc         1 L80       0.054289
     39 HK11        38.9940     7.5180    16.2720 h1         1 L80       0.015801
     40  HN2        38.3880     9.7590    15.8970 hn         1 L80       0.372660
     41  H5         41.3040     7.6880    16.8700 ha         1 L80       0.168039
     42  H4         43.5100     8.6000    17.3640 ha         1 L80       0.144056
     43  H3         44.0360    10.9550    16.8660 ha         1 L80       0.118207
     44  H1         40.2570    16.2940    14.9700 h1         1 L80       0.037852
     45  H2         41.4590    17.5610    14.9670 h1         1 L80       0.037852
     46  H6         39.9960    11.5810    15.6090 ha         1 L80       0.119213
     47 HK52        39.3380     8.1590    13.3360 hc         1 L80       0.054289
     48 HK51        40.6920     7.4850    14.2040 hc         1 L80       0.054289
     49 HK41        39.7050     5.2680    14.1990 h1         1 L80       0.018501
     50 HK42        39.6700     5.8780    12.5690 h1         1 L80       0.018501
@<TRIPOS>BOND
     1     1     2 1   
     2     1    32 1   
     3     1    33 1   
     4     1    34 1   
     5     2     3 1   
     6     3     4 2   
     7     3     5 1   
     8     5     6 1   
     9     5    31 1   
    10     6     7 1   
    11     6    35 1   
    12     6    36 1   
    13     7     8 1   
    14     7    37 1   
    15     7    38 1   
    16     8     9 1   
    17     8    30 1   
    18     8    39 1   
    19     9    10 1   
    20     9    40 1   
    21    10    11 ar  
    22    10    29 ar  
    23    11    12 ar  
    24    11    41 1   
    25    12    13 ar  
    26    12    42 1   
    27    13    14 ar  
    28    13    43 1   
    29    14    15 1   
    30    14    29 ar  
    31    15    16 1   
    32    15    27 2   
    33    16    17 1   
    34    17    18 1   
    35    17    21 2   
    36    18    19 1   
    37    18    20 1   
    38    21    22 1   
    39    21    27 1   
    40    22    23 1   
    41    23    24 1   
    42    23    44 1   
    43    23    45 1   
    44    24    25 1   
    45    24    26 1   
    46    27    28 1   
    47    29    46 1   
    48    30    31 1   
    49    30    47 1   
    50    30    48 1   
    51    31    49 1   
    52    31    50 1   
@<TRIPOS>SUBSTRUCTURE
     1 L80         1 TEMP              0 ****  ****    0 ROOT
