@<TRIPOS>MOLECULE
L35
   44    45     1     0     0
SMALL
resp


@<TRIPOS>ATOM
      1  C1         23.9500    12.4060    30.2950 c3         1 L35      -0.347971
      2  C2         23.2520    11.0660    30.5400 c3         1 L35       0.416115
      3  O1         22.1060    11.3120    31.3510 os         1 L35      -0.455391
      4  C3         21.3260    10.2500    31.7750 ca         1 L35       0.880040
      5  N1         21.7080     9.0020    31.3910 nb         1 L35      -0.802337
      6  C4         20.9480     7.9620    31.7630 ca         1 L35       0.733157
      7  C5         19.8120     8.0880    32.5460 ca         1 L35      -0.811593
      8  C6         19.4250     9.3590    32.9350 ca         1 L35       0.775584
      9  N2         18.2610     9.4250    33.6910 nh         1 L35      -0.980104
     10  C7         20.1840    10.4770    32.5510 ca         1 L35      -0.679705
     11  C8         19.8270    11.8460    32.9060 cg         1 L35       0.510082
     12  N3         19.5530    12.9360    33.1820 n1         1 L35      -0.535319
     13  N4         21.4600     6.7900    31.2550 n          1 L35      -0.500410
     14  C9         20.8690     5.6160    31.0260 c          1 L35       0.744836
     15  O2         19.7070     5.3520    31.3320 o          1 L35      -0.613312
     16  C10        21.6960     4.6000    30.2410 c3         1 L35      -0.353903
     17  C11        23.0920     4.3590    30.8150 ca         1 L35       0.081833
     18  C16        23.3320     3.5010    31.9080 ca         1 L35       0.127990
     19 C161        22.2250     2.7560    32.6420 c3         1 L35      -0.345220
     20  C15        24.6380     3.3400    32.3790 ca         1 L35      -0.231004
     21  C14        25.7010     4.0060    31.7730 ca         1 L35      -0.280913
     22  C13        25.4680     4.8550    30.6930 ca         1 L35       0.223618
     23 C131        26.6270     5.5870    30.0440 c3         1 L35      -0.326275
     24  C12        24.1670     5.0300    30.2230 ca         1 L35      -0.308589
     25  H1         24.8370    12.2780    29.6760 hc         1 L35       0.093162
     26  H2         23.2830    13.1010    29.7840 hc         1 L35       0.093162
     27  H3         24.2550    12.8660    31.2340 hc         1 L35       0.093162
     28  H4         22.9560    10.6140    29.5900 h1         1 L35      -0.014481
     29  H5         23.9390    10.3780    31.0380 h1         1 L35      -0.014481
     30  H6         19.2320     7.2270    32.8340 ha         1 L35       0.309490
     31  H7         17.8090     8.5700    34.0030 hn         1 L35       0.433574
     32  H8         17.8690    10.3270    33.9520 hn         1 L35       0.433574
     33  H9         22.4120     6.9080    30.9610 hn         1 L35       0.255595
     34  H10        21.1580     3.6550    30.1890 hc         1 L35       0.131917
     35  H11        21.7530     4.9690    29.2240 hc         1 L35       0.131917
     36 H161        21.3550     2.5380    32.0260 hc         1 L35       0.107458
     37 H162        22.5860     1.8000    33.0230 hc         1 L35       0.107458
     38 H163        21.8980     3.3490    33.4960 hc         1 L35       0.107458
     39  H15        24.8350     2.6930    33.2230 ha         1 L35       0.172659
     40  H14        26.7050     3.8660    32.1480 ha         1 L35       0.177946
     41 H131        27.2820     6.0180    30.8020 hc         1 L35       0.097301
     42 H132        27.2130     4.9000    29.4340 hc         1 L35       0.097301
     43 H133        26.2820     6.4020    29.4050 hc         1 L35       0.097301
     44  H12        23.9870     5.7100    29.4030 ha         1 L35       0.167321
@<TRIPOS>BOND
     1     1     2 1   
     2     1    25 1   
     3     1    26 1   
     4     1    27 1   
     5     2     3 1   
     6     2    28 1   
     7     2    29 1   
     8     3     4 1   
     9     4     5 ar  
    10     4    10 ar  
    11     5     6 ar  
    12     6     7 ar  
    13     6    13 1   
    14     7     8 ar  
    15     7    30 1   
    16     8     9 1   
    17     8    10 ar  
    18     9    31 1   
    19     9    32 1   
    20    10    11 1   
    21    11    12 3   
    22    13    14 1   
    23    13    33 1   
    24    14    15 2   
    25    14    16 1   
    26    16    17 1   
    27    16    34 1   
    28    16    35 1   
    29    17    18 ar  
    30    17    24 ar  
    31    18    19 1   
    32    18    20 ar  
    33    19    36 1   
    34    19    37 1   
    35    19    38 1   
    36    20    21 ar  
    37    20    39 1   
    38    21    22 ar  
    39    21    40 1   
    40    22    23 1   
    41    22    24 ar  
    42    23    41 1   
    43    23    42 1   
    44    23    43 1   
    45    24    44 1   
@<TRIPOS>SUBSTRUCTURE
     1 L35         1 TEMP              0 ****  ****    0 ROOT
