@<TRIPOS>MOLECULE
L29
   41    42     1     0     0
SMALL
resp


@<TRIPOS>ATOM
      1  C1         24.0510    12.2020    30.2640 c3         1 L29      -0.345052
      2  C2         23.3160    10.8860    30.5330 c3         1 L29       0.417390
      3  O1         22.1650    11.1830    31.3210 os         1 L29      -0.460357
      4  C3         21.3480    10.1520    31.7510 ca         1 L29       0.905300
      5  N1         21.6920     8.8870    31.3850 nb         1 L29      -0.816403
      6  C4         20.8970     7.8770    31.7650 ca         1 L29       0.770616
      7  C5         19.7610     8.0520    32.5390 ca         1 L29      -0.823170
      8  C6         19.4160     9.3370    32.9150 ca         1 L29       0.779589
      9  N2         18.2590     9.4440    33.6760 nh         1 L29      -0.970682
     10  C7         20.2110    10.4260    32.5220 ca         1 L29      -0.705729
     11  C8         19.8990    11.8070    32.8720 cg         1 L29       0.517539
     12  N3         19.6590    12.9060    33.1460 n1         1 L29      -0.536136
     13  N4         21.3870     6.6640    31.3300 n          1 L29      -0.590500
     14  C9         20.7490     5.5080    31.1210 c          1 L29       0.816056
     15  O2         19.5320     5.3800    31.2430 o          1 L29      -0.621609
     16  C10        21.5760     4.2860    30.6940 c3         1 L29      -0.445163
     17  C11        23.0920     4.4910    30.6830 ca         1 L29       0.277635
     18  C12        23.6890     5.3700    29.7690 ca         1 L29      -0.422552
     19  C13        25.0670     5.5920    29.8020 ca         1 L29       0.304913
     20 C131        25.7100     6.5800    28.8490 c3         1 L29      -0.359133
     21  C14        25.8570     4.9020    30.7230 ca         1 L29      -0.279882
     22  C15        25.2710     4.0090    31.6200 ca         1 L29      -0.126748
     23  C16        23.8910     3.8070    31.6030 ca         1 L29      -0.258787
     24  H1         24.9430    12.0350    29.6610 hc         1 L29       0.092451
     25  H2         23.4090    12.8990    29.7240 hc         1 L29       0.092451
     26  H3         24.3550    12.6790    31.1950 hc         1 L29       0.092451
     27  H4         23.0220    10.4180    29.5910 h1         1 L29      -0.016060
     28  H5         23.9770    10.1930    31.0580 h1         1 L29      -0.016060
     29  H6         19.1560     7.2140    32.8420 ha         1 L29       0.311530
     30  H7         17.7830     8.6040    33.9930 hn         1 L29       0.430630
     31  H8         17.8900    10.3580    33.9300 hn         1 L29       0.430630
     32  H9         22.3760     6.6960    31.1560 hn         1 L29       0.287806
     33  H10        21.3190     3.4660    31.3620 hc         1 L29       0.142579
     34  H11        21.2480     3.9880    29.7030 hc         1 L29       0.142579
     35  H12        23.0790     5.8960    29.0480 ha         1 L29       0.193914
     36 H131        24.9880     7.3050    28.4730 hc         1 L29       0.104870
     37 H132        26.5040     7.1380    29.3470 hc         1 L29       0.104870
     38 H133        26.1450     6.0540    27.9990 hc         1 L29       0.104870
     39  H14        26.9250     5.0640    30.7500 ha         1 L29       0.165241
     40  H15        25.8860     3.4780    32.3330 ha         1 L29       0.154894
     41  H16        23.4490     3.1150    32.3060 ha         1 L29       0.153222
@<TRIPOS>BOND
     1     1     2 1   
     2     1    24 1   
     3     1    25 1   
     4     1    26 1   
     5     2     3 1   
     6     2    27 1   
     7     2    28 1   
     8     3     4 1   
     9     4     5 ar  
    10     4    10 ar  
    11     5     6 ar  
    12     6     7 ar  
    13     6    13 1   
    14     7     8 ar  
    15     7    29 1   
    16     8     9 1   
    17     8    10 ar  
    18     9    30 1   
    19     9    31 1   
    20    10    11 1   
    21    11    12 3   
    22    13    14 1   
    23    13    32 1   
    24    14    15 2   
    25    14    16 1   
    26    16    17 1   
    27    16    33 1   
    28    16    34 1   
    29    17    18 ar  
    30    17    23 ar  
    31    18    19 ar  
    32    18    35 1   
    33    19    20 1   
    34    19    21 ar  
    35    20    36 1   
    36    20    37 1   
    37    20    38 1   
    38    21    22 ar  
    39    21    39 1   
    40    22    23 ar  
    41    22    40 1   
    42    23    41 1   
@<TRIPOS>SUBSTRUCTURE
     1 L29         1 TEMP              0 ****  ****    0 ROOT
