@<TRIPOS>MOLECULE
L31
   42    43     1     0     0
SMALL
resp


@<TRIPOS>ATOM
      1  C1         24.0750    12.4050    30.2450 c3         1 L31      -0.357256
      2  C2         23.3420    11.0800    30.4650 c3         1 L31       0.411653
      3  O1         22.2050    11.3420    31.2810 os         1 L31      -0.445038
      4  C3         21.4060    10.2920    31.7000 ca         1 L31       0.847570
      5  N1         21.7490     9.0420    31.2880 nb         1 L31      -0.789372
      6  C4         20.9740     8.0120    31.6610 ca         1 L31       0.775946
      7  C5         19.8650     8.1570    32.4820 ca         1 L31      -0.821117
      8  C6         19.5170     9.4290    32.8980 ca         1 L31       0.752982
      9  N2         18.3790     9.5090    33.6920 nh         1 L31      -0.957710
     10  C7         20.2860    10.5350    32.5030 ca         1 L31      -0.659817
     11  C8         19.9580    11.9050    32.8780 cg         1 L31       0.503979
     12  N3         19.7040    12.9960    33.1700 n1         1 L31      -0.535263
     13  N4         21.4340     6.8280    31.1200 n          1 L31      -0.580485
     14  C9         20.8530     5.6280    31.0360 c          1 L31       0.748269
     15  O2         19.7240     5.3670    31.4480 o          1 L31      -0.609333
     16  C10        21.6450     4.5580    30.2940 c3         1 L31      -0.216366
     17  C11        23.0460     4.3200    30.8550 ca         1 L31      -0.011634
     18  C12        24.1120     5.1700    30.5130 ca         1 L31       0.253012
     19  O12        23.8320     6.2510    29.6970 os         1 L31      -0.208343
     20 C121        24.8030     7.2850    29.5520 c3         1 L31      -0.222333
     21  C13        25.3920     4.8830    31.0090 ca         1 L31      -0.272691
     22  C14        25.6010     3.7980    31.8590 ca         1 L31      -0.118289
     23  C15        24.5320     2.9790    32.2140 ca         1 L31      -0.219949
     24  C16        23.2600     3.2340    31.7090 ca         1 L31      -0.129900
     25  H1         24.9600    12.2660    29.6240 hc         1 L31       0.095475
     26  H2         23.4280    13.1270    29.7470 hc         1 L31       0.095475
     27  H3         24.3910    12.8400    31.1930 hc         1 L31       0.095475
     28  H4         23.0340    10.6530    29.5080 h1         1 L31      -0.013848
     29  H5         24.0110    10.3650    30.9500 h1         1 L31      -0.013848
     30  H6         19.2720     7.3090    32.7810 ha         1 L31       0.313548
     31  H7         17.8990     8.6600    33.9760 hn         1 L31       0.426568
     32  H8         17.9920    10.4140    33.9480 hn         1 L31       0.426568
     33  H9         22.3440     6.9280    30.6980 hn         1 L31       0.272133
     34  H10        21.0870     3.6250    30.2720 hc         1 L31       0.081622
     35  H11        21.7210     4.9000    29.2670 hc         1 L31       0.081622
     36 H121        25.0950     7.7040    30.5160 h1         1 L31       0.122188
     37 H122        25.6930     6.9310    29.0290 h1         1 L31       0.122188
     38 H123        24.3770     8.0950    28.9600 h1         1 L31       0.122188
     39  H13        26.2390     5.4990    30.7480 ha         1 L31       0.162760
     40  H14        26.5910     3.5910    32.2420 ha         1 L31       0.155413
     41  H15        24.6930     2.1330    32.8680 ha         1 L31       0.160419
     42  H16        22.4450     2.5730    31.9710 ha         1 L31       0.155540
@<TRIPOS>BOND
     1     1     2 1   
     2     1    25 1   
     3     1    26 1   
     4     1    27 1   
     5     2     3 1   
     6     2    28 1   
     7     2    29 1   
     8     3     4 1   
     9     4     5 ar  
    10     4    10 ar  
    11     5     6 ar  
    12     6     7 ar  
    13     6    13 1   
    14     7     8 ar  
    15     7    30 1   
    16     8     9 1   
    17     8    10 ar  
    18     9    31 1   
    19     9    32 1   
    20    10    11 1   
    21    11    12 3   
    22    13    14 1   
    23    13    33 1   
    24    14    15 2   
    25    14    16 1   
    26    16    17 1   
    27    16    34 1   
    28    16    35 1   
    29    17    18 ar  
    30    17    24 ar  
    31    18    19 1   
    32    18    21 ar  
    33    19    20 1   
    34    20    36 1   
    35    20    37 1   
    36    20    38 1   
    37    21    22 ar  
    38    21    39 1   
    39    22    23 ar  
    40    22    40 1   
    41    23    24 ar  
    42    23    41 1   
    43    24    42 1   
@<TRIPOS>SUBSTRUCTURE
     1 L31         1 TEMP              0 ****  ****    0 ROOT
