@<TRIPOS>MOLECULE
L60
   52    53     1     0     0
SMALL
resp


@<TRIPOS>ATOM
      1  CY1        21.2240    13.7580    29.7740 c3         1 L60      -0.510830
      2  SY1        22.9860    13.4240    29.4250 s6         1 L60       1.152499
      3  OY1        23.3330    14.1350    28.1850 o          1 L60      -0.609050
      4  OY2        23.7510    13.6650    30.6540 o          1 L60      -0.609050
      5  CY2        23.0340    11.6250    29.1010 c3         1 L60      -0.364657
      6  CY3        23.2420    10.8260    30.3900 c3         1 L60       0.240351
      7  O1         22.1370    11.0920    31.2620 os         1 L60      -0.404257
      8  C3         21.3480    10.0700    31.7540 ca         1 L60       0.796958
      9  N1         21.6930     8.8110    31.3990 nb         1 L60      -0.757295
     10  C4         20.9170     7.8000    31.7870 ca         1 L60       0.743910
     11  C5         19.7850     7.9630    32.5720 ca         1 L60      -0.798900
     12  C6         19.4340     9.2500    32.9460 ca         1 L60       0.772615
     13  N2         18.2720     9.3640    33.7010 nh         1 L60      -0.990272
     14  C7         20.2240    10.3410    32.5430 ca         1 L60      -0.655244
     15  C8         19.9110    11.7210    32.8940 cg         1 L60       0.504950
     16  N3         19.6710    12.8210    33.1670 n1         1 L60      -0.535080
     17  N4         21.4150     6.6270    31.2770 n          1 L60      -0.493481
     18  C9         20.7990     5.4740    31.0440 c          1 L60       0.670098
     19  O2         19.6160     5.2720    31.3030 o          1 L60      -0.592407
     20  C10        21.6200     4.4090    30.3250 c3         1 L60      -0.115669
     21  C11        22.9820     4.1290    30.9580 ca         1 L60      -0.032953
     22  C12        24.0820     4.9600    30.6890 ca         1 L60       0.119217
     23  O12        23.8690     6.0490    29.8630 os         1 L60      -0.161867
     24 C121        24.9420     6.9450    29.5870 c3         1 L60      -0.244330
     25  C13        25.3200     4.6480    31.2680 ca         1 L60      -0.141701
     26  C14        25.4500     3.5510    32.1200 ca         1 L60      -0.372626
     27  C15        24.3620     2.7260    32.3930 ca         1 L60       0.416501
     28  C16        23.1280     3.0230    31.8010 ca         1 L60      -0.285330
     29  O15        24.5820     1.6650    33.2460 os         1 L60      -0.382076
     30 C151        23.6520     0.5850    33.2550 c3         1 L60       0.048744
     31  HY1        20.6220    13.4450    28.9240 h1         1 L60       0.183305
     32  HY2        20.9240    13.2060    30.6600 h1         1 L60       0.183305
     33  HY3        21.0980    14.8220    29.9580 h1         1 L60       0.183305
     34  HY4        22.1220    11.3400    28.5830 h1         1 L60       0.141718
     35  HY5        23.8610    11.4530    28.4150 h1         1 L60       0.141718
     36  HY6        23.4140     9.7840    30.1200 h1         1 L60       0.063381
     37  HY7        24.1560    11.1350    30.8970 h1         1 L60       0.063381
     38  H6         19.1830     7.1220    32.8690 ha         1 L60       0.307305
     39  H7         17.9080    10.2810    33.9500 hn         1 L60       0.439694
     40  H8         17.7980     8.5270    34.0310 hn         1 L60       0.439694
     41  H9         22.3650     6.7220    30.9520 hn         1 L60       0.228291
     42  H10        21.0530     3.4880    30.2400 hc         1 L60       0.064159
     43  H11        21.7620     4.7820    29.3170 hc         1 L60       0.064159
     44 H121        25.7710     6.4420    29.0870 h1         1 L60       0.126179
     45 H122        24.5890     7.7310    28.9190 h1         1 L60       0.126179
     46 H123        25.3080     7.4300    30.4930 h1         1 L60       0.126179
     47  H13        26.1940     5.2500    31.0720 ha         1 L60       0.163449
     48  H14        26.4050     3.3260    32.5720 ha         1 L60       0.199862
     49  H16        22.2760     2.3890    31.9880 ha         1 L60       0.168531
     50 H151        24.0230    -0.2000    33.9140 h1         1 L60       0.059146
     51 H152        22.6720     0.8800    33.6280 h1         1 L60       0.059146
     52 H153        23.5370     0.1480    32.2630 h1         1 L60       0.059146
@<TRIPOS>BOND
     1     1     2 1   
     2     1    31 1   
     3     1    32 1   
     4     1    33 1   
     5     2     3 2   
     6     2     4 2   
     7     2     5 1   
     8     5     6 1   
     9     5    34 1   
    10     5    35 1   
    11     6     7 1   
    12     6    36 1   
    13     6    37 1   
    14     7     8 1   
    15     8     9 ar  
    16     8    14 ar  
    17     9    10 ar  
    18    10    11 ar  
    19    10    17 1   
    20    11    12 ar  
    21    11    38 1   
    22    12    13 1   
    23    12    14 ar  
    24    13    39 1   
    25    13    40 1   
    26    14    15 1   
    27    15    16 3   
    28    17    18 1   
    29    17    41 1   
    30    18    19 2   
    31    18    20 1   
    32    20    21 1   
    33    20    42 1   
    34    20    43 1   
    35    21    22 ar  
    36    21    28 ar  
    37    22    23 1   
    38    22    25 ar  
    39    23    24 1   
    40    24    44 1   
    41    24    45 1   
    42    24    46 1   
    43    25    26 ar  
    44    25    47 1   
    45    26    27 ar  
    46    26    48 1   
    47    27    28 ar  
    48    27    29 1   
    49    28    49 1   
    50    29    30 1   
    51    30    50 1   
    52    30    51 1   
    53    30    52 1   
@<TRIPOS>SUBSTRUCTURE
     1 L60         1 TEMP              0 ****  ****    0 ROOT
