@<TRIPOS>MOLECULE
2J
   48    51     1     0     0
SMALL
resp


@<TRIPOS>ATOM
      1 C1          31.6240    38.9530    26.1540 c3         1 2J      -0.332319
      2 C2          31.0950    38.3550    27.4680 c3         1 2J       0.269096
      3 C3          33.0540    38.9790    28.6540 c3         1 2J       0.269096
      4 C4          33.6810    39.6140    27.4030 c3         1 2J      -0.332319
      5 C5          38.3660    36.7080    16.8210 ca         1 2J      -0.494350
      6 O1          31.6350    39.0630    28.5780 os         1 2J      -0.462884
      7 C6          34.5450    34.9770    21.1830 c          1 2J       0.635196
      8 C7          37.7000    36.1820    17.9450 ca         1 2J       0.395702
      9 C8          34.0440    38.9760    23.7380 ca         1 2J       1.160650
     10 C9          33.1560    38.9290    26.1330 c3         1 2J       0.603362
     11 C10         34.8030    37.8110    21.4410 ca         1 2J      -0.426265
     12 C11         35.2540    37.1250    20.2340 cc         1 2J      -0.117016
     13 C13         36.4300    36.2100    15.4300 ca         1 2J      -0.397235
     14 C14         35.7750    35.6620    16.5470 ca         1 2J      -0.115803
     15 C15         34.3070    37.0370    22.5110 ca         1 2J       0.517603
     16 C16         34.8520    39.2090    21.6170 ca         1 2J       0.453488
     17 C17         35.1650    35.7820    20.1250 cd         1 2J      -0.127241
     18 C18         36.3960    35.6570    17.8100 ca         1 2J      -0.096328
     19 C19         33.6690    34.8320    23.4620 c3         1 2J      -0.251594
     20 F1          38.2990    36.1900    19.1360 f          1 2J      -0.199184
     21 C20         35.6920    34.9980    18.9600 c3         1 2J      -0.135245
     22 N1          34.4790    39.7920    22.7770 nb         1 2J      -0.846778
     23 O3          34.3290    33.7760    21.0230 o          1 2J      -0.584533
     24 N2          34.2120    35.6180    22.3420 n          1 2J      -0.147696
     25 N3          33.9310    37.6500    23.6560 nb         1 2J      -0.714680
     26 N4          33.6720    39.5650    24.9270 nh         1 2J      -0.997157
     27 H1          31.2200    38.4000    25.3050 hc         1 2J       0.101250
     28 H2          31.2770    39.9810    26.0540 hc         1 2J       0.101250
     29 H3          30.0100    38.4340    27.5070 h1         1 2J       0.003042
     30 H4          31.3430    37.2950    27.5440 h1         1 2J       0.003042
     31 H5          33.3650    37.9380    28.7610 h1         1 2J       0.003042
     32 H6          33.3890    39.5050    29.5480 h1         1 2J       0.003042
     33 H7          33.4270    40.6740    27.3920 hc         1 2J       0.101250
     34 H8          34.7680    39.5450    27.4510 hc         1 2J       0.101250
     35 H9          39.3610    37.1090    16.9240 ha         1 2J       0.234716
     36 H10         33.4880    37.8910    26.1540 h1         1 2J      -0.040287
     37 H11         35.7030    37.7360    19.4670 ha         1 2J       0.161490
     38 H12         35.9400    36.2180    14.4680 ha         1 2J       0.206550
     39 H13         34.7940    35.2240    16.4300 ha         1 2J       0.178334
     40 H14         35.2180    39.8560    20.8360 h4         1 2J       0.093530
     41 H15         34.0540    35.1880    24.4180 h1         1 2J       0.118664
     42 H16         32.5820    34.9190    23.4830 h1         1 2J       0.118664
     43 H17         33.9200    33.7710    23.4230 h1         1 2J       0.118664
     44 H18         33.7900    40.5680    24.9710 hn         1 2J       0.404356
     45 H19         36.4280    34.2750    19.3110 hc         1 2J       0.106216
     46 H20         34.8710    34.4740    18.4720 hc         1 2J       0.106216
     47 C12         37.7590    36.7640    15.5100 ca         1 2J       0.467786
     48 F2          38.3820    37.2890    14.4550 f          1 2J      -0.217635
@<TRIPOS>BOND
     1     1     2 1   
     2     1    10 1   
     3     1    27 1   
     4     1    28 1   
     5     2     6 1   
     6     2    29 1   
     7     2    30 1   
     8     3     4 1   
     9     3     6 1   
    10     3    31 1   
    11     3    32 1   
    12     4    10 1   
    13     4    33 1   
    14     4    34 1   
    15     5     8 ar  
    16     5    35 1   
    17     5    47 ar  
    18     7    17 1   
    19     7    23 2   
    20     7    24 1   
    21     8    18 ar  
    22     8    20 1   
    23     9    22 ar  
    24     9    25 ar  
    25     9    26 1   
    26    10    26 1   
    27    10    36 1   
    28    11    12 1   
    29    11    15 ar  
    30    11    16 ar  
    31    12    17 2   
    32    12    37 1   
    33    13    14 ar  
    34    13    38 1   
    35    13    47 ar  
    36    14    18 ar  
    37    14    39 1   
    38    15    24 1   
    39    15    25 ar  
    40    16    22 ar  
    41    16    40 1   
    42    17    21 1   
    43    18    21 1   
    44    19    24 1   
    45    19    41 1   
    46    19    42 1   
    47    19    43 1   
    48    21    45 1   
    49    21    46 1   
    50    26    44 1   
    51    47    48 1   
@<TRIPOS>SUBSTRUCTURE
     1 2J         1 TEMP              0 ****  ****    0 ROOT
