@<TRIPOS>MOLECULE
L64
   43    46     1     0     0
SMALL
resp


@<TRIPOS>ATOM
      1 O1           3.8000   -50.0340     7.1690 o          1 L64      -0.742974
      2 C1           3.0740   -49.0720     6.8150 c          1 L64       0.804341
      3 O2           3.5570   -47.9280     6.7110 o          1 L64      -0.742974
      4 C2           1.6290   -49.2880     6.5310 cc         1 L64       0.026847
      5 S1           1.0910   -50.9350     6.7540 ss         1 L64      -0.117396
      6 C3          -0.5530   -50.5010     6.3440 ca         1 L64      -0.121662
      7 C4          -1.6750   -51.3470     6.3180 ca         1 L64      -0.062685
      8 C5          -2.9400   -50.8180     5.9960 ca         1 L64      -0.048405
      9 C6          -3.0700   -49.4500     5.6860 ca         1 L64      -0.059089
     10 C7          -1.9350   -48.6230     5.6970 ca         1 L64      -0.335940
     11 C8          -0.6480   -49.1140     6.0300 ca         1 L64       0.296893
     12 C9           0.6270   -48.4210     6.1330 cd         1 L64      -0.246591
     13 C10          0.7580   -46.9450     5.8670 c3         1 L64       0.109895
     14 C11          0.6930   -46.0790     7.1420 c3         1 L64      -0.078888
     15 C12         -0.4920   -46.3660     8.0890 c3         1 L64      -0.055950
     16 O3          -1.7430   -45.9690     7.5210 os         1 L64      -0.285130
     17 C13         -2.9140   -46.2510     8.2080 ca         1 L64       0.223674
     18 C14         -5.3830   -46.7620     9.5420 ca         1 L64      -0.386714
     19 C15         -4.2150   -47.4260     9.9410 ca         1 L64      -0.093114
     20 C16         -2.9950   -47.1800     9.2810 ca         1 L64      -0.284616
     21 CL3         -4.3320   -51.8140     5.9910 cl         1 L64      -0.175070
     22 H1          -1.5570   -52.3930     6.5590 ha         1 L64       0.163416
     23 H3          -4.0420   -49.0430     5.4470 ha         1 L64       0.126273
     24 H4          -2.0590   -47.5780     5.4690 ha         1 L64       0.196980
     25 H5          -0.0320   -46.6220     5.1910 hc         1 L64       0.002759
     26 H6           1.6820   -46.7380     5.3250 hc         1 L64       0.002759
     27 H7           0.7200   -45.0230     6.8730 hc         1 L64       0.059775
     28 H8           1.6080   -46.2700     7.7050 hc         1 L64       0.059775
     29 H9          -0.3460   -45.8120     9.0160 h1         1 L64       0.096539
     30 H10         -0.4790   -47.4240     8.3360 h1         1 L64       0.096539
     31 H11         -2.1520   -47.7520     9.6090 ha         1 L64       0.153598
     32 H12         -4.2480   -48.1460    10.7490 ha         1 L64       0.147851
     33 H13         -6.3130   -46.9660    10.0590 ha         1 L64       0.171776
     34 C17         -5.3380   -45.8550     8.4660 ca         1 L64       0.262201
     35 C18         -4.1070   -45.6000     7.7990 ca         1 L64       0.022893
     36 C19         -4.0950   -44.6860     6.7190 ca         1 L64      -0.201866
     37 C20         -5.2800   -44.0440     6.3080 ca         1 L64      -0.150600
     38 C21         -6.4960   -44.3050     6.9740 ca         1 L64      -0.130303
     39 C22         -6.5210   -45.2090     8.0540 ca         1 L64      -0.276164
     40 H14         -3.1800   -44.4680     6.1940 ha         1 L64       0.154372
     41 H15         -5.2590   -43.3520     5.4830 ha         1 L64       0.133351
     42 H16         -7.4010   -43.8160     6.6570 ha         1 L64       0.133497
     43 H17         -7.4570   -45.3990     8.5580 ha         1 L64       0.150126
@<TRIPOS>BOND
     1     1     2 1   
     2     2     3 1   
     3     2     4 1   
     4     4     5 1   
     5     4    12 2   
     6     5     6 1   
     7     6     7 ar  
     8     6    11 ar  
     9     7     8 ar  
    10     7    22 1   
    11     8     9 ar  
    12     8    21 1   
    13     9    10 ar  
    14     9    23 1   
    15    10    11 ar  
    16    10    24 1   
    17    11    12 1   
    18    12    13 1   
    19    13    14 1   
    20    13    25 1   
    21    13    26 1   
    22    14    15 1   
    23    14    27 1   
    24    14    28 1   
    25    15    16 1   
    26    15    29 1   
    27    15    30 1   
    28    16    17 1   
    29    17    20 ar  
    30    17    35 ar  
    31    18    19 ar  
    32    18    33 1   
    33    18    34 ar  
    34    19    20 ar  
    35    19    32 1   
    36    20    31 1   
    37    34    35 ar  
    38    34    39 ar  
    39    35    36 ar  
    40    36    37 ar  
    41    36    40 1   
    42    37    38 ar  
    43    37    41 1   
    44    38    39 ar  
    45    38    42 1   
    46    39    43 1   
@<TRIPOS>SUBSTRUCTURE
     1 L64         1 TEMP              0 ****  ****    0 ROOT
