@<TRIPOS>MOLECULE
L3K
   45    48     1     0     0
SMALL
resp


@<TRIPOS>ATOM
      1 C1          11.7400    -2.2130     1.2310 c3         1 L3K      -0.249939
      2 N1          13.0680    -2.5560     0.7090 n          1 L3K      -0.121550
      3 C2          14.2260    -2.5680     1.3850 cz         1 L3K       0.719359
      4 N2          14.3830    -2.3340     2.6890 nh         1 L3K      -0.939777
      5 N3          15.2560    -2.8610     0.5930 nh         1 L3K      -0.468604
      6 C3          14.8530    -3.1590    -0.7800 c3         1 L3K      -0.432999
      7 CJ1         15.1440    -4.6470    -1.0920 ca         1 L3K      -0.028294
      8 CJ2         14.2640    -5.4800    -1.8170 ca         1 L3K       0.096348
      9 CJ3         14.5650    -6.8430    -1.9700 ca         1 L3K      -0.469510
     10 CJ4         15.7570    -7.3360    -1.4320 ca         1 L3K       0.439111
     11 NJ1         16.6210    -6.5580    -0.7670 nb         1 L3K      -0.651344
     12 CJ5         16.3170    -5.2550    -0.6050 ca         1 L3K       0.385755
     13 C4          15.4650    -2.1400    -1.7600 ca         1 L3K       0.096125
     14 C5          16.0950    -2.5440    -2.9590 ca         1 L3K      -0.156157
     15 C6          16.5720    -1.5780    -3.8630 ca         1 L3K      -0.188794
     16 C7          16.4070    -0.2070    -3.5900 ca         1 L3K      -0.076838
     17 C8          15.8150     0.2380    -2.3900 cp         1 L3K      -0.020287
     18 C9          15.6040     1.6830    -2.1190 cp         1 L3K       0.019325
     19 C10         15.3470     2.5920    -3.1730 ca         1 L3K      -0.121957
     20 C11         15.0380     3.9440    -2.9130 ca         1 L3K      -0.208648
     21 C12         15.0070     4.4210    -1.5930 ca         1 L3K      -0.016982
     22 C13         15.3050     3.5500    -0.5350 ca         1 L3K      -0.041195
     23 CL1         15.2910     4.1510     1.0820 cl         1 L3K      -0.098139
     24 C14         15.6000     2.1970    -0.7990 ca         1 L3K      -0.044277
     25 C15         15.3710    -0.7500    -1.4800 ca         1 L3K      -0.070455
     26 C16         13.3360    -2.8870    -0.6510 c          1 L3K       0.641233
     27 O1          12.4740    -2.9290    -1.5360 o          1 L3K      -0.447984
     28 H1          11.5520    -1.1510     1.0730 h1         1 L3K       0.145863
     29 H2          10.9570    -2.7750     0.7220 h1         1 L3K       0.145863
     30 H3          11.6700    -2.4250     2.2970 h1         1 L3K       0.145863
     31 H4          15.3230    -2.3540     3.0890 hn         1 L3K       0.474704
     32 H5          16.2330    -2.8550     0.8940 hn         1 L3K       0.421053
     33 HJ1         13.3410    -5.1090    -2.2190 ha         1 L3K       0.153610
     34 HJ2         13.8940    -7.5090    -2.4900 ha         1 L3K       0.213334
     35 HJ3         16.0230    -8.3770    -1.5220 h4         1 L3K       0.074442
     36 HJ4         17.0110    -4.6880    -0.0140 h4         1 L3K       0.039083
     37 H6          16.2120    -3.5880    -3.2170 ha         1 L3K       0.166185
     38 H7          17.0460    -1.8830    -4.7860 ha         1 L3K       0.177853
     39 H8          16.7360     0.5090    -4.3260 ha         1 L3K       0.144986
     40 H9          15.3300     2.2450    -4.1960 ha         1 L3K       0.147476
     41 H10         14.7910     4.6180    -3.7180 ha         1 L3K       0.175830
     42 H11         14.7490     5.4510    -1.3900 ha         1 L3K       0.140002
     43 H12         15.8200     1.5470     0.0300 ha         1 L3K       0.093721
     44 H13         14.8910    -0.4240    -0.5700 ha         1 L3K       0.121902
     45 H14         13.6380    -2.0380     3.3180 hn         1 L3K       0.474704
@<TRIPOS>BOND
     1     1     2 1   
     2     1    28 1   
     3     1    29 1   
     4     1    30 1   
     5     2     3 2   
     6     2    26 1   
     7     3     4 1   
     8     3     5 1   
     9     4    31 1   
    10     4    45 1   
    11     5     6 1   
    12     5    32 1   
    13     6     7 1   
    14     6    13 1   
    15     6    26 1   
    16     7     8 ar  
    17     7    12 ar  
    18     8     9 ar  
    19     8    33 1   
    20     9    10 ar  
    21     9    34 1   
    22    10    11 ar  
    23    10    35 1   
    24    11    12 ar  
    25    12    36 1   
    26    13    14 ar  
    27    13    25 ar  
    28    14    15 ar  
    29    14    37 1   
    30    15    16 ar  
    31    15    38 1   
    32    16    17 ar  
    33    16    39 1   
    34    17    18 1   
    35    17    25 ar  
    36    18    19 ar  
    37    18    24 ar  
    38    19    20 ar  
    39    19    40 1   
    40    20    21 ar  
    41    20    41 1   
    42    21    22 ar  
    43    21    42 1   
    44    22    23 1   
    45    22    24 ar  
    46    24    43 1   
    47    25    44 1   
    48    26    27 2   
@<TRIPOS>SUBSTRUCTURE
     1 L3K         1 TEMP              0 ****  ****    0 ROOT
