@<TRIPOS>MOLECULE
L4B
   50    53     1     0     0
SMALL
resp


@<TRIPOS>ATOM
      1 CP1         14.8900     4.8690     1.3570 c3         1 L4B       0.021622
      2 OP1         15.4910     3.6590     0.9340 os         1 L4B      -0.395467
      3 C13         15.4560     3.3610    -0.4090 ca         1 L4B       0.490425
      4 C12         15.2030     4.3050    -1.4280 ca         1 L4B      -0.325497
      5 C11         15.2290     3.9020    -2.7750 ca         1 L4B      -0.083664
      6 C10         15.4670     2.5540    -3.1150 ca         1 L4B      -0.306521
      7 C9          15.6670     1.5800    -2.1110 cp         1 L4B       0.189913
      8 C8          15.7990     0.1370    -2.4300 cp         1 L4B       0.054069
      9 C7          16.3440    -0.3090    -3.6510 ca         1 L4B      -0.140145
     10 C6          16.4510    -1.6810    -3.9430 ca         1 L4B      -0.146056
     11 C5          15.9730    -2.6430    -3.0350 ca         1 L4B      -0.256678
     12 C4          15.3930    -2.2320    -1.8120 ca         1 L4B       0.294239
     13 C3          14.8070    -3.2360    -0.8030 c3         1 L4B      -0.265441
     14 CO1         15.1480    -4.7200    -1.0800 ca         1 L4B       0.122151
     15 CO2         16.3640    -5.2430    -0.5910 ca         1 L4B      -0.171404
     16 CO3         16.7310    -6.5830    -0.7930 ca         1 L4B      -0.145995
     17 CO4         15.8590    -7.4490    -1.4650 ca         1 L4B      -0.085437
     18 CO5         14.6430    -6.9570    -1.9660 ca         1 L4B      -0.145995
     19 CO6         14.2970    -5.6020    -1.7880 ca         1 L4B      -0.171404
     20 N3          15.2300    -2.9020     0.5590 nh         1 L4B      -0.495610
     21 C2          14.2090    -2.6080     1.3610 cz         1 L4B       0.716714
     22 N2          14.3830    -2.3400     2.6580 nh         1 L4B      -0.954634
     23 N1          13.0410    -2.6280     0.7040 n          1 L4B      -0.116612
     24 C1          11.7210    -2.2790     1.2430 c3         1 L4B      -0.235756
     25 C16         13.2870    -2.9900    -0.6540 c          1 L4B       0.564863
     26 O1          12.4100    -3.0490    -1.5240 o          1 L4B      -0.441656
     27 C15         15.3370    -0.8450    -1.5240 ca         1 L4B      -0.262085
     28 C14         15.6870     2.0220    -0.7700 ca         1 L4B      -0.417937
     29 HP1         14.8790     4.9110     2.4460 h1         1 L4B       0.070155
     30 HP2         15.4280     5.7410     0.9980 h1         1 L4B       0.070155
     31 HP3         13.8630     4.9310     1.0040 h1         1 L4B       0.070155
     32 H11         15.0040     5.3420    -1.2030 ha         1 L4B       0.171544
     33 H10         15.0420     4.6340    -3.5450 ha         1 L4B       0.164594
     34 H9          15.4460     2.2650    -4.1550 ha         1 L4B       0.163936
     35 H8          16.6910     0.4070    -4.3790 ha         1 L4B       0.159461
     36 H7          16.8950    -1.9890    -4.8790 ha         1 L4B       0.172055
     37 H6          16.0550    -3.6890    -3.3000 ha         1 L4B       0.196637
     38 HO2         17.0280    -4.6140    -0.0260 ha         1 L4B       0.159063
     39 HO3         17.6720    -6.9470    -0.4050 ha         1 L4B       0.160442
     40 HO4         16.1250    -8.4850    -1.5760 ha         1 L4B       0.150414
     41 HO5         13.9720    -7.6250    -2.4860 ha         1 L4B       0.160442
     42 HO6         13.3590    -5.2650    -2.1900 ha         1 L4B       0.159063
     43 H5          16.2090    -2.9000     0.8440 hn         1 L4B       0.410765
     44 H4          13.6430    -2.0450     3.2920 hn         1 L4B       0.477400
     45 H1          10.9260    -2.8240     0.7340 h1         1 L4B       0.140598
     46 H2          11.6590    -2.5070     2.3070 h1         1 L4B       0.140598
     47 H3          11.5440    -1.2130     1.1040 h1         1 L4B       0.140598
     48 H13         14.8870    -0.5180    -0.5990 ha         1 L4B       0.128870
     49 H12         15.8630     1.3170     0.0230 ha         1 L4B       0.165654
     50 H14         15.3270    -2.3480     3.0470 hn         1 L4B       0.477400
@<TRIPOS>BOND
     1     1     2 1   
     2     1    29 1   
     3     1    30 1   
     4     1    31 1   
     5     2     3 1   
     6     3     4 ar  
     7     3    28 ar  
     8     4     5 ar  
     9     4    32 1   
    10     5     6 ar  
    11     5    33 1   
    12     6     7 ar  
    13     6    34 1   
    14     7     8 1   
    15     7    28 ar  
    16     8     9 ar  
    17     8    27 ar  
    18     9    10 ar  
    19     9    35 1   
    20    10    11 ar  
    21    10    36 1   
    22    11    12 ar  
    23    11    37 1   
    24    12    13 1   
    25    12    27 ar  
    26    13    14 1   
    27    13    20 1   
    28    13    25 1   
    29    14    15 ar  
    30    14    19 ar  
    31    15    16 ar  
    32    15    38 1   
    33    16    17 ar  
    34    16    39 1   
    35    17    18 ar  
    36    17    40 1   
    37    18    19 ar  
    38    18    41 1   
    39    19    42 1   
    40    20    21 2   
    41    20    43 1   
    42    21    22 1   
    43    21    23 1   
    44    22    44 1   
    45    22    50 1   
    46    23    24 1   
    47    23    25 1   
    48    24    45 1   
    49    24    46 1   
    50    24    47 1   
    51    25    26 2   
    52    27    48 1   
    53    28    49 1   
@<TRIPOS>SUBSTRUCTURE
     1 L4B         1 TEMP              0 ****  ****    0 ROOT
