@<TRIPOS>MOLECULE
L52
   55    56     1     0     0
SMALL
resp


@<TRIPOS>ATOM
      1  CV1        24.4150    10.2470    30.7180 c3         1 L52      -0.477358
      2  CV2        23.2190    11.0460    30.1840 c3         1 L52       0.577052
      3  CV3        22.7150    10.5300    28.8280 c3         1 L52      -0.477358
      4  O1         22.1810    11.2380    31.1570 os         1 L52      -0.523455
      5  C3         21.4030    10.2020    31.6500 ca         1 L52       0.768051
      6  N1         21.7300     8.9410    31.2770 nb         1 L52      -0.596153
      7  C4         20.9700     7.9250    31.6880 ca         1 L52       0.527952
      8  C5         19.8690     8.0880    32.5160 ca         1 L52      -0.639838
      9  C6         19.5320     9.3740    32.9060 ca         1 L52       0.620695
     10  N2         18.4020     9.4820    33.7080 nh         1 L52      -0.937824
     11  C7         20.3040    10.4680    32.4770 ca         1 L52      -0.548518
     12  C8         19.9960    11.8470    32.8390 cg         1 L52       0.497524
     13  N3         19.7580    12.9440    33.1220 n1         1 L52      -0.536049
     14  N4         21.4460     6.7430    31.1640 n          1 L52      -0.473549
     15  C9         20.8520     5.5560    31.0440 c          1 L52       0.704616
     16  O2         19.7090     5.3140    31.4220 o          1 L52      -0.598376
     17  C10        21.6440     4.4870    30.3020 c3         1 L52      -0.147875
     18  C11        22.9980     4.1710    30.9300 ca         1 L52       0.009719
     19  C12        24.1220     4.9620    30.6450 ca         1 L52       0.191520
     20  O12        23.9390     6.0550    29.8170 os         1 L52      -0.194764
     21 C121        25.0650     6.8330    29.4150 c3         1 L52      -0.156816
     22  C13        25.3550     4.6080    31.2080 ca         1 L52      -0.264378
     23  C14        25.4610     3.5030    32.0580 ca         1 L52      -0.074731
     24  S14        27.0700     3.0790    32.7390 sy         1 L52       1.128385
     25 O141        26.9130     2.7680    34.1690 o          1 L52      -0.596363
     26 O142        28.0400     4.1080    32.3300 o          1 L52      -0.596363
     27 C141        27.5190     1.5240    31.8680 c3         1 L52      -0.428043
     28  C15        24.3410     2.7130    32.3510 ca         1 L52       0.183410
     29  C16        23.1130     3.0640    31.7750 ca         1 L52      -0.243672
     30  O15        24.5000     1.6320    33.1960 os         1 L52      -0.329602
     31 C151        23.5380     0.5810    33.1830 c3         1 L52      -0.105547
     32  HV1        24.7410    10.6620    31.6650 hc         1 L52       0.118989
     33  HV2        24.1780     9.1990    30.8860 hc         1 L52       0.118989
     34  HV3        25.2500    10.2780    30.0190 hc         1 L52       0.118989
     35  HV4        23.5910    12.0560    30.0010 h1         1 L52       0.011037
     36  HV5        21.9550    11.1990    28.4340 hc         1 L52       0.118989
     37  HV6        23.5250    10.4950    28.1010 hc         1 L52       0.118989
     38  HV7        22.2880     9.5300    28.8820 hc         1 L52       0.118989
     39  H6         19.2800     7.2460    32.8390 ha         1 L52       0.278303
     40  H7         17.9100     8.6430    34.0020 hn         1 L52       0.426865
     41  H8         18.0220    10.3950    33.9430 hn         1 L52       0.426865
     42  H9         22.3660     6.8520    30.7690 hn         1 L52       0.235163
     43  H10        21.0570     3.5780    30.2100 hc         1 L52       0.066547
     44  H11        21.7880     4.8640    29.2940 hc         1 L52       0.066547
     45 H121        25.7830     6.2360    28.8490 h1         1 L52       0.108572
     46 H122        24.7300     7.6420    28.7670 h1         1 L52       0.108572
     47 H123        25.5720     7.2880    30.2680 h1         1 L52       0.108572
     48  H13        26.2390     5.1870    30.9960 ha         1 L52       0.186406
     49 H141        27.5470     1.7070    30.7960 h1         1 L52       0.153760
     50 H142        28.4950     1.1900    32.2140 h1         1 L52       0.153760
     51 H143        26.7700     0.7660    32.0900 h1         1 L52       0.153760
     52  H16        22.2360     2.4670    31.9690 ha         1 L52       0.200026
     53 H151        22.5550     0.9010    33.5260 h1         1 L52       0.113007
     54 H152        23.4440     0.1420    32.1900 h1         1 L52       0.113007
     55 H153        23.8680    -0.2110    33.8550 h1         1 L52       0.113007
@<TRIPOS>BOND
     1     1     2 1   
     2     1    32 1   
     3     1    33 1   
     4     1    34 1   
     5     2     3 1   
     6     2     4 1   
     7     2    35 1   
     8     3    36 1   
     9     3    37 1   
    10     3    38 1   
    11     4     5 1   
    12     5     6 ar  
    13     5    11 ar  
    14     6     7 ar  
    15     7     8 ar  
    16     7    14 1   
    17     8     9 ar  
    18     8    39 1   
    19     9    10 1   
    20     9    11 ar  
    21    10    40 1   
    22    10    41 1   
    23    11    12 1   
    24    12    13 3   
    25    14    15 1   
    26    14    42 1   
    27    15    16 2   
    28    15    17 1   
    29    17    18 1   
    30    17    43 1   
    31    17    44 1   
    32    18    19 ar  
    33    18    29 ar  
    34    19    20 1   
    35    19    22 ar  
    36    20    21 1   
    37    21    45 1   
    38    21    46 1   
    39    21    47 1   
    40    22    23 ar  
    41    22    48 1   
    42    23    24 1   
    43    23    28 ar  
    44    24    25 2   
    45    24    26 2   
    46    24    27 1   
    47    27    49 1   
    48    27    50 1   
    49    27    51 1   
    50    28    29 ar  
    51    28    30 1   
    52    29    52 1   
    53    30    31 1   
    54    31    53 1   
    55    31    54 1   
    56    31    55 1   
@<TRIPOS>SUBSTRUCTURE
     1 L52         1 TEMP              0 ****  ****    0 ROOT
