@<TRIPOS>MOLECULE
L4M
   48    51     1     0     0
SMALL
resp


@<TRIPOS>ATOM
      1 CT1         15.2090     4.1240     0.7010 c3         1 L4M      -0.401144
      2 C13         15.3090     3.5220    -0.6860 ca         1 L4M      -0.028865
      3 C12         15.1280     4.3250    -1.8220 ca         1 L4M       0.278277
      4 N11         15.2150     3.8470    -3.0720 nb         1 L4M      -0.608675
      5 C10         15.4530     2.5310    -3.2370 ca         1 L4M       0.342238
      6 C9          15.6150     1.6090    -2.1790 cp         1 L4M      -0.165935
      7 C8          15.7870     0.1570    -2.4350 cp         1 L4M      -0.006793
      8 C7          16.3710    -0.3090    -3.6320 ca         1 L4M      -0.065995
      9 C6          16.5070    -1.6830    -3.8950 ca         1 L4M      -0.179445
     10 C5          16.0170    -2.6320    -2.9820 ca         1 L4M      -0.233584
     11 C4          15.4020    -2.2060    -1.7810 ca         1 L4M       0.271466
     12 C3          14.8030    -3.2090    -0.7800 c3         1 L4M      -0.249471
     13 CO1         15.1320    -4.6950    -1.0610 ca         1 L4M       0.101607
     14 CO2         14.2710    -5.5710    -1.7660 ca         1 L4M      -0.165807
     15 CO3         14.6070    -6.9270    -1.9480 ca         1 L4M      -0.148450
     16 CO4         15.8240    -7.4270    -1.4570 ca         1 L4M      -0.082349
     17 CO5         16.7060    -6.5690    -0.7890 ca         1 L4M      -0.148450
     18 CO6         16.3490    -5.2260    -0.5820 ca         1 L4M      -0.165807
     19 N3          15.2230    -2.8830     0.5830 nh         1 L4M      -0.479945
     20 C2          14.1990    -2.6020     1.3850 cz         1 L4M       0.720612
     21 N2          14.3720    -2.3500     2.6840 nh         1 L4M      -0.957772
     22 N1          13.0320    -2.6160     0.7250 n          1 L4M      -0.128479
     23 C1          11.7080    -2.2820     1.2640 c3         1 L4M      -0.247559
     24 C16         13.2840    -2.9560    -0.6370 c          1 L4M       0.569696
     25 O1          12.4100    -2.9970    -1.5120 o          1 L4M      -0.441284
     26 C15         15.3260    -0.8130    -1.5150 ca         1 L4M      -0.222284
     27 C14         15.5650     2.1500    -0.8760 ca         1 L4M      -0.040350
     28 HT1         16.0320     3.7900     1.3330 hc         1 L4M       0.127048
     29 HT2         15.2300     5.2140     0.6620 hc         1 L4M       0.127048
     30 HT3         14.2700     3.8300     1.1670 hc         1 L4M       0.127048
     31 H11         14.9150     5.3800    -1.7270 h4         1 L4M       0.089911
     32 H9          15.4710     2.2000    -4.2640 h4         1 L4M       0.060072
     33 H8          16.7220     0.3880    -4.3750 ha         1 L4M       0.141485
     34 H7          16.9760    -2.0020    -4.8150 ha         1 L4M       0.178665
     35 H6          16.1170    -3.6800    -3.2290 ha         1 L4M       0.196916
     36 HO2         13.3310    -5.2280    -2.1610 ha         1 L4M       0.157290
     37 HO3         13.9280    -7.5910    -2.4620 ha         1 L4M       0.162073
     38 HO4         16.0820    -8.4660    -1.5740 ha         1 L4M       0.151434
     39 HO5         17.6490    -6.9380    -0.4110 ha         1 L4M       0.162073
     40 HO6         17.0230    -4.6020    -0.0250 ha         1 L4M       0.157290
     41 H5          16.2020    -2.8880     0.8700 hn         1 L4M       0.399262
     42 H4          13.6300    -2.0610     3.3200 hn         1 L4M       0.478763
     43 H1          10.9230    -2.8520     0.7660 h1         1 L4M       0.145942
     44 H2          11.6540    -2.4950     2.3310 h1         1 L4M       0.145942
     45 H3          11.5090    -1.2230     1.1070 h1         1 L4M       0.145942
     46 H13         14.8550    -0.4760    -0.6030 ha         1 L4M       0.117113
     47 H12         15.7150     1.5140    -0.0200 ha         1 L4M       0.134465
     48 H14         15.3160    -2.3600     3.0730 hn         1 L4M       0.478763
@<TRIPOS>BOND
     1     1     2 1   
     2     1    28 1   
     3     1    29 1   
     4     1    30 1   
     5     2     3 ar  
     6     2    27 ar  
     7     3     4 ar  
     8     3    31 1   
     9     4     5 ar  
    10     5     6 ar  
    11     5    32 1   
    12     6     7 1   
    13     6    27 ar  
    14     7     8 ar  
    15     7    26 ar  
    16     8     9 ar  
    17     8    33 1   
    18     9    10 ar  
    19     9    34 1   
    20    10    11 ar  
    21    10    35 1   
    22    11    12 1   
    23    11    26 ar  
    24    12    13 1   
    25    12    19 1   
    26    12    24 1   
    27    13    14 ar  
    28    13    18 ar  
    29    14    15 ar  
    30    14    36 1   
    31    15    16 ar  
    32    15    37 1   
    33    16    17 ar  
    34    16    38 1   
    35    17    18 ar  
    36    17    39 1   
    37    18    40 1   
    38    19    20 2   
    39    19    41 1   
    40    20    21 1   
    41    20    22 1   
    42    21    42 1   
    43    21    48 1   
    44    22    23 1   
    45    22    24 1   
    46    23    43 1   
    47    23    44 1   
    48    23    45 1   
    49    24    25 2   
    50    26    46 1   
    51    27    47 1   
@<TRIPOS>SUBSTRUCTURE
     1 L4M         1 TEMP              0 ****  ****    0 ROOT
