@<TRIPOS>MOLECULE
L1S
   50    53     1     0     0
SMALL
resp


@<TRIPOS>ATOM
      1  C1          1.3900    29.1080     6.7940 ca         1 L1S       0.770930
      2  C2         -1.6910    31.9130     8.0790 cc         1 L1S       0.331304
      3  C3         -0.7440    26.3750     8.8320 c3         1 L1S       0.035091
      4  C4         -1.3140    25.5570     9.9910 c3         1 L1S       0.058446
      5  C5         -1.1210    24.0590     9.6850 c3         1 L1S      -0.067964
      6  C6         -1.5820    23.1790    10.8500 c3         1 L1S      -0.036342
      7  C7         -0.8550    23.5460    12.1490 c3         1 L1S       0.052103
      8  C8         -1.0780    25.0280    12.4860 c3         1 L1S      -0.036342
      9  C9         -0.6320    25.9350    11.3270 c3         1 L1S      -0.067964
     10  C10         4.6900    25.7130     5.8380 ca         1 L1S      -0.030426
     11  C11         4.6670    25.1390     7.1230 ca         1 L1S      -0.229403
     12  C12         3.9500    25.7660     8.1580 ca         1 L1S      -0.030426
     13  C13         3.2460    26.9560     7.8980 ca         1 L1S      -0.353847
     14  N1          0.6300    28.2310     7.4510 nb         1 L1S      -0.597912
     15  C14        -0.4900    28.6250     8.0920 ca         1 L1S       0.492513
     16  O1         -1.1800    27.7320     8.8830 os         1 L1S      -0.289312
     17  C15        -0.8660    29.9820     8.0000 ca         1 L1S       0.047070
     18  N2         -1.9250    30.7130     8.5210 nd         1 L1S      -0.589399
     19  N3         -0.5540    32.0460     7.3310 na         1 L1S      -0.587863
     20  C16        -0.0250    30.7860     7.2610 ca         1 L1S       0.572932
     21  N4          1.1170    30.4050     6.6110 nb         1 L1S      -0.764581
     22  N5          2.5830    28.6810     6.3360 nh         1 L1S      -0.613413
     23  C17         3.2370    27.5250     6.6030 ca         1 L1S       0.473282
     24  C18         3.9870    26.9070     5.5820 ca         1 L1S      -0.353847
     25  H1         -2.3540    32.7340     8.2870 h5         1 L1S       0.119082
     26  H2          0.3420    26.2810     8.8890 h1         1 L1S       0.065175
     27  H3         -1.0530    25.9540     7.8730 h1         1 L1S       0.065175
     28  H4         -2.3850    25.7540    10.0700 hc         1 L1S       0.035860
     29  H5         -1.6740    23.7900     8.7850 hc         1 L1S       0.029278
     30  H6         -0.0710    23.8530     9.4740 hc         1 L1S       0.029278
     31  H7         -2.6490    23.3290    10.9950 hc         1 L1S       0.011007
     32  H8         -1.4340    22.1250    10.6150 hc         1 L1S       0.011007
     33  H9         -1.2180    22.9240    12.9680 hc         1 L1S      -0.005840
     34  H10         0.2130    23.3450    12.0500 hc         1 L1S      -0.005840
     35  H11        -2.1340    25.2030    12.7000 hc         1 L1S       0.011007
     36  H12        -0.5350    25.2900    13.3930 hc         1 L1S       0.011007
     37  H13         0.4520    25.8640    11.2220 hc         1 L1S       0.029278
     38  H14        -0.8460    26.9770    11.5730 hc         1 L1S       0.029278
     39  H15         5.2550    25.2430     5.0480 ha         1 L1S       0.156267
     40  H16         3.9400    25.3400     9.1500 ha         1 L1S       0.156267
     41  H17         2.7080    27.4240     8.7080 ha         1 L1S       0.171701
     42  H18        -0.1780    32.8770     6.8850 hn         1 L1S       0.405085
     43  H19         3.0170    29.2660     5.6330 hn         1 L1S       0.348565
     44  H20         4.0230    27.3390     4.5930 ha         1 L1S       0.171701
     45  S11         5.4310    23.8790     7.4000 sy         1 L1S       1.218783
     46 O111         5.8110    23.2940     6.1200 o          1 L1S      -0.568804
     47 O112         6.4230    24.1720     8.4270 o          1 L1S      -0.568804
     48 NS11         4.3520    22.7430     8.1190 n3         1 L1S      -0.939286
     49 HNS1         3.7950    22.1530     7.5180 hn         1 L1S       0.414573
     50 HNS2         4.2200    22.7630     9.1200 hn         1 L1S       0.414573
@<TRIPOS>BOND
     1     1    14 ar  
     2     1    21 ar  
     3     1    22 1   
     4     2    18 2   
     5     2    19 1   
     6     2    25 1   
     7     3     4 1   
     8     3    16 1   
     9     3    26 1   
    10     3    27 1   
    11     4     5 1   
    12     4     9 1   
    13     4    28 1   
    14     5     6 1   
    15     5    29 1   
    16     5    30 1   
    17     6     7 1   
    18     6    31 1   
    19     6    32 1   
    20     7     8 1   
    21     7    33 1   
    22     7    34 1   
    23     8     9 1   
    24     8    35 1   
    25     8    36 1   
    26     9    37 1   
    27     9    38 1   
    28    10    11 ar  
    29    10    24 ar  
    30    10    39 1   
    31    11    12 ar  
    32    11    45 1   
    33    12    13 ar  
    34    12    40 1   
    35    13    23 ar  
    36    13    41 1   
    37    14    15 ar  
    38    15    16 1   
    39    15    17 ar  
    40    17    18 1   
    41    17    20 ar  
    42    19    20 1   
    43    19    42 1   
    44    20    21 ar  
    45    22    23 1   
    46    22    43 1   
    47    23    24 ar  
    48    24    44 1   
    49    45    46 2   
    50    45    47 2   
    51    45    48 1   
    52    48    49 1   
    53    48    50 1   
@<TRIPOS>SUBSTRUCTURE
     1 L1S         1 TEMP              0 ****  ****    0 ROOT
