@<TRIPOS>MOLECULE
2V
   35    37     1     0     0
SMALL
resp


@<TRIPOS>ATOM
      1 C5          38.2630    36.7140    17.0130 ca         1 2V      -0.510448
      2 C6          34.5450    34.9770    21.1830 c          1 2V       0.672781
      3 C7          37.5970    36.1890    18.1370 ca         1 2V       0.376241
      4 C8          34.0440    38.9760    23.7380 ca         1 2V       0.975681
      5 CV1         33.1560    38.9290    26.1330 c3         1 2V      -0.161622
      6 C10         34.8030    37.8110    21.4410 ca         1 2V      -0.472718
      7 C11         35.2540    37.1250    20.2340 cc         1 2V      -0.192096
      8 C12         37.6230    36.7430    15.7590 ca         1 2V       0.461755
      9 C13         36.3270    36.2160    15.6230 ca         1 2V      -0.403865
     10 C14         35.6720    35.6680    16.7400 ca         1 2V      -0.145846
     11 C15         34.3070    37.0370    22.5110 ca         1 2V       0.568628
     12 C16         34.8520    39.2090    21.6170 ca         1 2V       0.543572
     13 C17         35.1650    35.7820    20.1250 cd         1 2V       0.083988
     14 C18         36.2930    35.6640    18.0030 ca         1 2V       0.152343
     15 C19         33.6690    34.8320    23.4620 c3         1 2V      -0.220704
     16 F1          38.1960    36.1970    19.3280 f          1 2V      -0.183555
     17 O2          35.6500    35.0620    19.0540 os         1 2V      -0.321183
     18 N1          34.4790    39.7920    22.7770 nb         1 2V      -0.897861
     19 O3          34.3290    33.7760    21.0230 o          1 2V      -0.568050
     20 N2          34.2120    35.6180    22.3420 n          1 2V      -0.217924
     21 N3          33.9310    37.6500    23.6560 nb         1 2V      -0.650173
     22 N4          33.6720    39.5650    24.9270 nh         1 2V      -0.566517
     23 H9          39.2580    37.1160    17.1170 ha         1 2V       0.247117
     24 HV3         33.4880    37.8910    26.1540 h1         1 2V       0.096977
     25 H11         35.7030    37.7360    19.4670 ha         1 2V       0.158200
     26 H12         35.8370    36.2250    14.6600 ha         1 2V       0.217998
     27 H13         34.6920    35.2300    16.6230 ha         1 2V       0.196399
     28 H14         35.2180    39.8560    20.8360 h4         1 2V       0.080469
     29 H15         34.0540    35.1880    24.4180 h1         1 2V       0.114336
     30 H16         32.5820    34.9190    23.4830 h1         1 2V       0.114336
     31 H17         33.9200    33.7710    23.4230 h1         1 2V       0.114336
     32 H18         33.7900    40.5680    24.9710 hn         1 2V       0.356491
     33 HV1         33.5330    39.4550    27.0110 h1         1 2V       0.096977
     34 HV2         32.0670    38.9680    26.1280 h1         1 2V       0.096977
     35 F2          38.2360    37.2740    14.7020 f          1 2V      -0.213039
@<TRIPOS>BOND
     1     1     3 ar  
     2     1     8 ar  
     3     1    23 1   
     4     2    13 1   
     5     2    19 2   
     6     2    20 1   
     7     3    14 ar  
     8     3    16 1   
     9     4    18 ar  
    10     4    21 ar  
    11     4    22 1   
    12     5    22 1   
    13     5    24 1   
    14     5    33 1   
    15     5    34 1   
    16     6     7 1   
    17     6    11 ar  
    18     6    12 ar  
    19     7    13 2   
    20     7    25 1   
    21     8     9 ar  
    22     8    35 1   
    23     9    10 ar  
    24     9    26 1   
    25    10    14 ar  
    26    10    27 1   
    27    11    20 1   
    28    11    21 ar  
    29    12    18 ar  
    30    12    28 1   
    31    13    17 1   
    32    14    17 1   
    33    15    20 1   
    34    15    29 1   
    35    15    30 1   
    36    15    31 1   
    37    22    32 1   
@<TRIPOS>SUBSTRUCTURE
     1 2V         1 TEMP              0 ****  ****    0 ROOT
