@<TRIPOS>MOLECULE
L32
   42    43     1     0     0
SMALL
resp


@<TRIPOS>ATOM
      1  C1         22.8350    10.6130    29.0690 c3         1 L32      -0.216488
      2  C2         23.2560    10.8540    30.5250 c3         1 L32       0.402744
      3  O1         22.1210    11.1380    31.3460 os         1 L32      -0.451158
      4  C3         21.3030    10.1140    31.7940 ca         1 L32       0.733508
      5  N1         21.6560     8.8450    31.4620 nb         1 L32      -0.622992
      6  C4         20.8560     7.8400    31.8370 ca         1 L32       0.620014
      7  C5         19.7060     8.0210    32.5850 ca         1 L32      -0.706599
      8  C6         19.3550     9.3100    32.9400 ca         1 L32       0.668268
      9  N2         18.1850     9.4220    33.6780 nh         1 L32      -0.948584
     10  C7         20.1560    10.3960    32.5460 ca         1 L32      -0.560762
     11  C8         19.8390    11.7810    32.8750 cg         1 L32       0.489068
     12  N3         19.5960    12.8840    33.1330 n1         1 L32      -0.531830
     13  N4         21.3590     6.6320    31.4180 n          1 L32      -0.576965
     14  C9         20.7260     5.4860    31.1540 c          1 L32       0.799054
     15  O2         19.5060     5.3610    31.2300 o          1 L32      -0.611466
     16  C10        21.5720     4.2760    30.7230 c3         1 L32      -0.461639
     17  C11        23.0670     4.5580    30.5720 ca         1 L32       0.370171
     18  C16        23.9660     4.1690    31.5710 ca         1 L32      -0.495590
     19  C15        25.3370     4.3580    31.4210 ca         1 L32       0.509679
     20  O15        26.1330     3.8950    32.4460 os         1 L32      -0.379980
     21 C151        27.5410     4.0840    32.3620 c3         1 L32       0.005063
     22  C14        25.8100     4.9780    30.2550 ca         1 L32      -0.349621
     23  C13        24.9200     5.3920    29.2620 ca         1 L32      -0.070799
     24  C12        23.5510     5.1790    29.4200 ca         1 L32      -0.395532
     25  H1         23.7030    10.4790    28.4250 hc         1 L32       0.054890
     26  H2         22.2150     9.7220    28.9750 hc         1 L32       0.054890
     27  H3         22.2620    11.4570    28.6850 hc         1 L32       0.054890
     28  H4         23.8510    10.0250    30.9150 h1         1 L32      -0.022636
     29  H5         23.9090    11.7270    30.5640 h1         1 L32      -0.022636
     30  H6         19.0960     7.1840    32.8820 ha         1 L32       0.291222
     31  H7         17.7190     8.5830    34.0120 hn         1 L32       0.427623
     32  H8         17.8210    10.3380    33.9320 hn         1 L32       0.427623
     33  H9         22.3510     6.6750    31.2620 hn         1 L32       0.290659
     34  H10        21.4060     3.4780    31.4450 hc         1 L32       0.153058
     35  H11        21.1890     3.9160    29.7720 hc         1 L32       0.153058
     36  H16        23.6110     3.6890    32.4710 ha         1 L32       0.187181
     37 H151        28.0180     3.6450    33.2380 h1         1 L32       0.070278
     38 H152        27.9620     3.5930    31.4850 h1         1 L32       0.070278
     39 H153        27.8010     5.1430    32.3420 h1         1 L32       0.070278
     40  H14        26.8650     5.1410    30.1020 ha         1 L32       0.168694
     41  H13        25.2920     5.8690    28.3660 ha         1 L32       0.158857
     42  H12        22.8720     5.4960    28.6400 ha         1 L32       0.194229
@<TRIPOS>BOND
     1     1     2 1   
     2     1    25 1   
     3     1    26 1   
     4     1    27 1   
     5     2     3 1   
     6     2    28 1   
     7     2    29 1   
     8     3     4 1   
     9     4     5 ar  
    10     4    10 ar  
    11     5     6 ar  
    12     6     7 ar  
    13     6    13 1   
    14     7     8 ar  
    15     7    30 1   
    16     8     9 1   
    17     8    10 ar  
    18     9    31 1   
    19     9    32 1   
    20    10    11 1   
    21    11    12 3   
    22    13    14 1   
    23    13    33 1   
    24    14    15 2   
    25    14    16 1   
    26    16    17 1   
    27    16    34 1   
    28    16    35 1   
    29    17    18 ar  
    30    17    24 ar  
    31    18    19 ar  
    32    18    36 1   
    33    19    20 1   
    34    19    22 ar  
    35    20    21 1   
    36    21    37 1   
    37    21    38 1   
    38    21    39 1   
    39    22    23 ar  
    40    22    40 1   
    41    23    24 ar  
    42    23    41 1   
    43    24    42 1   
@<TRIPOS>SUBSTRUCTURE
     1 L32         1 TEMP              0 ****  ****    0 ROOT
