@<TRIPOS>MOLECULE
L32
   41    43     1     0     0
SMALL
resp


@<TRIPOS>ATOM
      1 O1           3.5630   -47.8130     6.2550 o          1 L32      -0.794677
      2 C1           3.0220   -48.8130     6.7750 c          1 L32       0.871956
      3 O2           3.6460   -49.5540     7.5780 o          1 L32      -0.794677
      4 C2           1.6130   -49.1480     6.4570 cc         1 L32       0.043460
      5 C3          -0.2310   -50.4990     6.6100 ca         1 L32       0.372679
      6 C4          -1.1870   -51.5020     6.8850 ca         1 L32      -0.390352
      7 C5          -2.4770   -51.4080     6.3240 ca         1 L32      -0.110442
      8 C6          -2.8020   -50.3150     5.4950 ca         1 L32      -0.274226
      9 C7          -1.8440   -49.3160     5.2320 ca         1 L32      -0.169195
     10 C8          -0.5400   -49.3740     5.7790 ca         1 L32       0.007634
     11 C9           0.6320   -48.5300     5.7110 cd         1 L32      -0.181414
     12 C10          0.7400   -47.2200     4.9660 c3         1 L32       0.073734
     13 C11          0.8620   -45.9950     5.8920 c3         1 L32       0.018718
     14 C12         -0.3440   -45.7990     6.8140 c3         1 L32      -0.100630
     15 O3          -1.4780   -45.4110     6.0510 os         1 L32      -0.372493
     16 C13         -2.6600   -45.1950     6.7290 ca         1 L32       0.430338
     17 C16         -2.8550   -45.5250     8.0920 ca         1 L32      -0.311269
     18 C15         -4.0870   -45.2610     8.7180 ca         1 L32      -0.222998
     19 C14         -5.1350   -44.6540     8.0060 ca         1 L32       0.167161
     20 C17         -4.9500   -44.3370     6.6470 ca         1 L32      -0.222998
     21 C18         -3.7260   -44.6100     6.0130 ca         1 L32      -0.311269
     22 H1          -0.9210   -52.3320     7.5180 ha         1 L32       0.176445
     23 H2          -3.2060   -52.1740     6.5390 ha         1 L32       0.119151
     24 H3          -3.7890   -50.2440     5.0710 ha         1 L32       0.137103
     25 H4          -2.1040   -48.4780     4.5980 ha         1 L32       0.164195
     26 H5          -0.1270   -47.0930     4.3200 hc         1 L32       0.000767
     27 H6           1.6010   -47.2530     4.3010 hc         1 L32       0.000767
     28 H7           1.0040   -45.1040     5.2820 hc         1 L32       0.036256
     29 H8           1.7580   -46.0690     6.5120 hc         1 L32       0.036256
     30 H9          -0.1120   -45.0200     7.5440 h1         1 L32       0.098080
     31 H10         -0.5320   -46.7230     7.3640 h1         1 L32       0.098080
     32 H11         -2.0820   -45.9790     8.6890 ha         1 L32       0.165721
     33 H19         -3.6030   -44.3560     4.9710 ha         1 L32       0.165721
     34 H22         -5.7470   -43.8720     6.0830 ha         1 L32       0.159554
     35 H12         -4.2170   -45.5200     9.7570 ha         1 L32       0.159554
     36 N1           1.0890   -50.3190     6.9930 na         1 L32      -0.568273
     37 H            1.6680   -50.9260     7.5780 hn         1 L32       0.383727
     38 CE1         -6.4400   -44.3420     8.7150 c3         1 L32      -0.280857
     39 HE1         -7.1510   -43.8470     8.0470 hc         1 L32       0.072904
     40 HE2         -6.8940   -45.2650     9.0850 hc         1 L32       0.072904
     41 HE3         -6.2530   -43.6840     9.5680 hc         1 L32       0.072904
@<TRIPOS>BOND
     1     1     2 1   
     2     2     3 1   
     3     2     4 1   
     4     4    11 2   
     5     4    36 1   
     6     5     6 ar  
     7     5    10 ar  
     8     5    36 1   
     9     6     7 ar  
    10     6    22 1   
    11     7     8 ar  
    12     7    23 1   
    13     8     9 ar  
    14     8    24 1   
    15     9    10 ar  
    16     9    25 1   
    17    10    11 1   
    18    11    12 1   
    19    12    13 1   
    20    12    26 1   
    21    12    27 1   
    22    13    14 1   
    23    13    28 1   
    24    13    29 1   
    25    14    15 1   
    26    14    30 1   
    27    14    31 1   
    28    15    16 1   
    29    16    17 ar  
    30    16    21 ar  
    31    17    18 ar  
    32    17    32 1   
    33    18    19 ar  
    34    18    35 1   
    35    19    20 ar  
    36    19    38 1   
    37    20    21 ar  
    38    20    34 1   
    39    21    33 1   
    40    36    37 1   
    41    38    39 1   
    42    38    40 1   
    43    38    41 1   
@<TRIPOS>SUBSTRUCTURE
     1 L32         1 TEMP              0 ****  ****    0 ROOT
