@<TRIPOS>MOLECULE
L4D
   53    56     1     0     0
SMALL
resp


@<TRIPOS>ATOM
      1 CR1        15.3110     5.3150     2.5950 c3         1 L4D      -0.381614
      2 CR2        14.9690     5.0170     1.1350 c3         1 L4D       0.418218
      3 OR1        15.4870     3.7530     0.7560 os         1 L4D      -0.450832
      4 C13        15.3580     3.3820    -0.5660 ca         1 L4D       0.432116
      5 C12        14.9830     4.2580    -1.6140 ca         1 L4D      -0.298428
      6 C11        14.9080     3.7850    -2.9350 ca         1 L4D      -0.082240
      7 C10        15.1870     2.4350    -3.2240 ca         1 L4D      -0.301123
      8 C9         15.5190     1.5300    -2.1920 cp         1 L4D       0.165424
      9 C8         15.7100     0.0900    -2.4690 cp         1 L4D       0.053923
     10 C7         16.2930    -0.3590    -3.6710 ca         1 L4D      -0.134956
     11 C6         16.4450    -1.7320    -3.9340 ca         1 L4D      -0.155095
     12 C5         15.9770    -2.6890    -3.0150 ca         1 L4D      -0.240671
     13 C4         15.3660    -2.2720    -1.8080 ca         1 L4D       0.285329
     14 C3         14.7940    -3.2740    -0.7900 c3         1 L4D      -0.301554
     15 CO1        15.1440    -4.7550    -1.0650 ca         1 L4D       0.136373
     16 CO2        14.3020    -5.6420    -1.7780 ca         1 L4D      -0.170347
     17 CO3        14.6610    -6.9930    -1.9600 ca         1 L4D      -0.149350
     18 CO4        15.8810    -7.4750    -1.4580 ca         1 L4D      -0.087671
     19 CO5        16.7450    -6.6040    -0.7850 ca         1 L4D      -0.149350
     20 CO6        16.3660    -5.2670    -0.5790 ca         1 L4D      -0.170347
     21 N3         15.2240    -2.9270     0.5660 nh         1 L4D      -0.517243
     22 C2         14.2060    -2.6300     1.3710 cz         1 L4D       0.751453
     23 N2         14.3870    -2.3470     2.6640 nh         1 L4D      -0.970539
     24 N1         13.0340    -2.6640     0.7220 n          1 L4D      -0.133230
     25 C1         11.7160    -2.3160     1.2690 c3         1 L4D      -0.239831
     26 C16        13.2730    -3.0390    -0.6330 c          1 L4D       0.591754
     27 O1         12.3890    -3.1130    -1.4960 o          1 L4D      -0.446757
     28 C15        15.2700    -0.8820    -1.5450 ca         1 L4D      -0.254151
     29 C14        15.6150     2.0340    -0.8760 ca         1 L4D      -0.374387
     30 HR1        14.9230     6.2870     2.8970 hc         1 L4D       0.103103
     31 HR2        14.8800     4.5680     3.2560 hc         1 L4D       0.103103
     32 HR3        16.3870     5.3160     2.7610 hc         1 L4D       0.103103
     33 HR4        13.8920     5.0230     0.9900 h1         1 L4D      -0.012617
     34 HR5        15.3900     5.8040     0.5180 h1         1 L4D      -0.012617
     35 H11        14.7480     5.2970    -1.4410 ha         1 L4D       0.144255
     36 H10        14.6160     4.4610    -3.7230 ha         1 L4D       0.164647
     37 H9         15.1000     2.0870    -4.2440 ha         1 L4D       0.162318
     38 H8         16.6340     0.3560    -4.4040 ha         1 L4D       0.159009
     39 H7         16.9150    -2.0430    -4.8560 ha         1 L4D       0.173095
     40 H6         16.0920    -3.7360    -3.2600 ha         1 L4D       0.193626
     41 HO2        13.3610    -5.3120    -2.1810 ha         1 L4D       0.158606
     42 HO3        13.9960    -7.6660    -2.4820 ha         1 L4D       0.162283
     43 HO4        16.1580    -8.5080    -1.5700 ha         1 L4D       0.152149
     44 HO5        17.6910    -6.9580    -0.4010 ha         1 L4D       0.162283
     45 HO6        17.0280    -4.6320    -0.0190 ha         1 L4D       0.158606
     46 H5         16.2050    -2.9150     0.8450 hn         1 L4D       0.418984
     47 H4         13.6480    -2.0490     3.3000 hn         1 L4D       0.480558
     48 H1         10.9190    -2.8650     0.7660 h1         1 L4D       0.141979
     49 H2         11.6610    -2.5400     2.3330 h1         1 L4D       0.141979
     50 H3         11.5360    -1.2500     1.1270 h1         1 L4D       0.141979
     51 H13        14.8040    -0.5410    -0.6320 ha         1 L4D       0.129279
     52 H12        15.8750     1.3710    -0.0680 ha         1 L4D       0.164859
     53 H14        15.3330    -2.3470     3.0480 hn         1 L4D       0.480558
@<TRIPOS>BOND
     1     1     2 1   
     2     1    30 1   
     3     1    31 1   
     4     1    32 1   
     5     2     3 1   
     6     2    33 1   
     7     2    34 1   
     8     3     4 1   
     9     4     5 ar  
    10     4    29 ar  
    11     5     6 ar  
    12     5    35 1   
    13     6     7 ar  
    14     6    36 1   
    15     7     8 ar  
    16     7    37 1   
    17     8     9 1   
    18     8    29 ar  
    19     9    10 ar  
    20     9    28 ar  
    21    10    11 ar  
    22    10    38 1   
    23    11    12 ar  
    24    11    39 1   
    25    12    13 ar  
    26    12    40 1   
    27    13    14 1   
    28    13    28 ar  
    29    14    15 1   
    30    14    21 1   
    31    14    26 1   
    32    15    16 ar  
    33    15    20 ar  
    34    16    17 ar  
    35    16    41 1   
    36    17    18 ar  
    37    17    42 1   
    38    18    19 ar  
    39    18    43 1   
    40    19    20 ar  
    41    19    44 1   
    42    20    45 1   
    43    21    22 2   
    44    21    46 1   
    45    22    23 1   
    46    22    24 1   
    47    23    47 1   
    48    23    53 1   
    49    24    25 1   
    50    24    26 1   
    51    25    48 1   
    52    25    49 1   
    53    25    50 1   
    54    26    27 2   
    55    28    51 1   
    56    29    52 1   
@<TRIPOS>SUBSTRUCTURE
     1 L4D         1 TEMP              0 ****  ****    0 ROOT
