@<TRIPOS>MOLECULE
L30
   41    43     1     0     0
SMALL
resp


@<TRIPOS>ATOM
      1 O1           3.7090   -50.0140     7.0130 o          1 L30      -0.796216
      2 C1           3.0490   -49.0010     6.6640 c          1 L30       0.876000
      3 O2           3.5630   -47.8680     6.6030 o          1 L30      -0.796216
      4 C2           1.6060   -49.1680     6.3500 cc         1 L30       0.047275
      5 C3          -0.3130   -50.3900     6.2490 ca         1 L30       0.381492
      6 C4          -1.3060   -51.3830     6.3080 ca         1 L30      -0.392087
      7 C5          -2.6360   -51.0460     5.9760 ca         1 L30      -0.108636
      8 C6          -2.9450   -49.7370     5.5740 ca         1 L30      -0.272535
      9 C7          -1.9390   -48.7520     5.5050 ca         1 L30      -0.168862
     10 C8          -0.5910   -49.0540     5.8490 ca         1 L30       0.007055
     11 C9           0.6350   -48.2930     5.9040 cd         1 L30      -0.187882
     12 C10          0.8090   -46.8340     5.5610 c3         1 L30       0.076969
     13 C11          0.8740   -45.9330     6.8110 c3         1 L30       0.018230
     14 C12         -0.4310   -45.9190     7.6160 c3         1 L30      -0.127747
     15 O3          -1.3930   -45.1910     6.8680 os         1 L30      -0.366385
     16 C13         -2.6930   -45.1870     7.3130 ca         1 L30       0.486604
     17 C16         -3.1490   -45.8770     8.4660 ca         1 L30      -0.456784
     18 C15         -4.5090   -45.8420     8.8310 ca         1 L30       0.328891
     19 C14         -5.4210   -45.0930     8.0630 ca         1 L30      -0.417315
     20 C17         -4.9780   -44.3960     6.9230 ca         1 L30      -0.022672
     21 C18         -3.6220   -44.4510     6.5500 ca         1 L30      -0.396944
     22 H1          -1.0550   -52.3830     6.6110 ha         1 L30       0.175566
     23 H2          -3.4060   -51.7980     6.0250 ha         1 L30       0.118039
     24 H3          -3.9640   -49.4860     5.3120 ha         1 L30       0.135568
     25 H4          -2.1990   -47.7500     5.1960 ha         1 L30       0.164385
     26 H5           0.0010   -46.5000     4.9070 hc         1 L30       0.000983
     27 H6           1.7260   -46.6960     4.9790 hc         1 L30       0.000983
     28 H7           1.1200   -44.9130     6.5120 hc         1 L30       0.037178
     29 H8           1.6900   -46.2670     7.4470 hc         1 L30       0.037178
     30 H9          -0.2710   -45.4380     8.5800 h1         1 L30       0.109236
     31 H10         -0.7620   -46.9400     7.8070 h1         1 L30       0.109236
     32 H11         -2.4730   -46.4520     9.0780 ha         1 L30       0.178543
     33 H19         -3.2870   -43.9300     5.6650 ha         1 L30       0.173697
     34 H22         -5.6770   -43.8250     6.3270 ha         1 L30       0.127522
     35 H13         -6.4650   -45.0580     8.3360 ha         1 L30       0.168959
     36 N1           1.0440   -50.4160     6.5270 na         1 L30      -0.579080
     37 H            1.6060   -51.2070     6.8320 hn         1 L30       0.387656
     38 CC1         -4.9810   -46.6350    10.0350 c3         1 L30      -0.310706
     39 HC1         -6.0500   -46.4950    10.2060 hc         1 L30       0.084274
     40 HC2         -4.7950   -47.6980     9.8700 hc         1 L30       0.084274
     41 HC3         -4.4400   -46.3260    10.9330 hc         1 L30       0.084274
@<TRIPOS>BOND
     1     1     2 1   
     2     2     3 1   
     3     2     4 1   
     4     4    11 2   
     5     4    36 1   
     6     5     6 ar  
     7     5    10 ar  
     8     5    36 1   
     9     6     7 ar  
    10     6    22 1   
    11     7     8 ar  
    12     7    23 1   
    13     8     9 ar  
    14     8    24 1   
    15     9    10 ar  
    16     9    25 1   
    17    10    11 1   
    18    11    12 1   
    19    12    13 1   
    20    12    26 1   
    21    12    27 1   
    22    13    14 1   
    23    13    28 1   
    24    13    29 1   
    25    14    15 1   
    26    14    30 1   
    27    14    31 1   
    28    15    16 1   
    29    16    17 ar  
    30    16    21 ar  
    31    17    18 ar  
    32    17    32 1   
    33    18    19 ar  
    34    18    38 1   
    35    19    20 ar  
    36    19    35 1   
    37    20    21 ar  
    38    20    34 1   
    39    21    33 1   
    40    36    37 1   
    41    38    39 1   
    42    38    40 1   
    43    38    41 1   
@<TRIPOS>SUBSTRUCTURE
     1 L30         1 TEMP              0 ****  ****    0 ROOT
