@<TRIPOS>MOLECULE
L77
   43    45     1     0     0
SMALL
resp


@<TRIPOS>ATOM
      1  O2         41.2290    17.5370    11.9440 o          1 L77      -0.854809
      2  C1         40.3850    17.4300    12.8610 c          1 L77       0.916004
      3  O1         39.3050    18.0560    12.9320 o          1 L77      -0.854809
      4  C2         40.7070    16.4570    13.9990 c3         1 L77      -0.010648
      5  O3         41.9720    15.8290    13.8020 os         1 L77      -0.304326
      6  C3         42.3250    14.9330    14.7530 cc         1 L77       0.216825
      7  C6         41.8780    13.6140    14.7800 cc         1 L77      -0.129706
      8  BR1        40.7150    12.9160    13.4390 br         1 L77      -0.068683
      9  C5         42.3470    12.8250    15.8290 cd         1 L77       0.028555
     10  C8         42.0580    11.4350    16.1600 ca         1 L77       0.034457
     11  C9         43.0420    10.5800    16.6710 ca         1 L77      -0.097393
     12  C10        42.7510     9.2420    16.9420 ca         1 L77      -0.210435
     13  C11        41.4810     8.7320    16.6730 ca         1 L77      -0.294755
     14  C12        40.4830     9.5700    16.1590 ca         1 L77       0.401526
     15  N1         39.1830     9.1390    15.8450 nh         1 L77      -0.953557
     16  CK1        38.9110     7.7620    15.4290 c3         1 L77       0.721423
     17  CK2        37.3830     7.5400    15.3340 c3         1 L77      -0.317259
     18  CK3        37.0170     6.1410    14.7980 c3         1 L77       0.240748
     19  OK         37.7150     5.8360    13.4580 os         1 L77      -0.464784
     20  CK4        39.2400     6.0200    13.5610 c3         1 L77       0.240748
     21  CK5        39.6100     7.4190    14.0880 c3         1 L77      -0.317259
     22  C13        40.7760    10.9160    15.9500 ca         1 L77      -0.254729
     23  S1         43.4370    13.7820    16.8010 ss         1 L77      -0.164665
     24  C4         43.2080    15.1990    15.7940 cd         1 L77      -0.053861
     25  C7         43.9620    16.4180    16.1730 c          1 L77       0.787139
     26  O5         44.7100    16.3740    17.1740 o          1 L77      -0.752050
     27  O4         43.8290    17.4590    15.4900 o          1 L77      -0.752050
     28  H1         39.9020    15.7270    14.1010 h1         1 L77       0.036592
     29  H2         40.7420    17.0090    14.9380 h1         1 L77       0.036592
     30  H3         44.0400    10.9490    16.8560 ha         1 L77       0.116474
     31  H4         43.5110     8.5980    17.3590 ha         1 L77       0.144401
     32  H5         41.2790     7.6880    16.8610 ha         1 L77       0.150028
     33  HN2        38.4030     9.7250    16.1020 hn         1 L77       0.362242
     34 HK11        38.9940     7.5180    16.2720 h1         1 L77      -0.099193
     35 HK21        36.9300     7.6610    16.3180 hc         1 L77       0.090371
     36 HK22        36.9310     8.2960    14.6910 hc         1 L77       0.090371
     37 HK31        37.3180     5.3760    15.5140 h1         1 L77      -0.000961
     38 HK32        35.9400     6.0450    14.6660 h1         1 L77      -0.000961
     39 HK41        39.6440     5.2650    14.2360 h1         1 L77      -0.000961
     40 HK42        39.7050     5.8550    12.5890 h1         1 L77      -0.000961
     41 HK52        39.3560     8.1610    13.3310 hc         1 L77       0.090371
     42 HK51        40.6920     7.4630    14.2140 hc         1 L77       0.090371
     43  H6         40.0030    11.5910    15.6160 ha         1 L77       0.163576
@<TRIPOS>BOND
     1     1     2 1   
     2     2     3 1   
     3     2     4 1   
     4     4     5 1   
     5     4    28 1   
     6     4    29 1   
     7     5     6 1   
     8     6     7 1   
     9     6    24 2   
    10     7     8 1   
    11     7     9 2   
    12     9    10 1   
    13     9    23 1   
    14    10    11 ar  
    15    10    22 ar  
    16    11    12 ar  
    17    11    30 1   
    18    12    13 ar  
    19    12    31 1   
    20    13    14 ar  
    21    13    32 1   
    22    14    15 1   
    23    14    22 ar  
    24    15    16 1   
    25    15    33 1   
    26    16    17 1   
    27    16    21 1   
    28    16    34 1   
    29    17    18 1   
    30    17    35 1   
    31    17    36 1   
    32    18    19 1   
    33    18    37 1   
    34    18    38 1   
    35    19    20 1   
    36    20    21 1   
    37    20    39 1   
    38    20    40 1   
    39    21    41 1   
    40    21    42 1   
    41    22    43 1   
    42    23    24 1   
    43    24    25 1   
    44    25    26 1   
    45    25    27 1   
@<TRIPOS>SUBSTRUCTURE
     1 L77         1 TEMP              0 ****  ****    0 ROOT
