@<TRIPOS>MOLECULE
L67
   31    32     1     0     0
SMALL
resp


@<TRIPOS>ATOM
      1 CA          38.8520     7.7940    16.4840 c3         1 L67       0.046724
      2 OA          39.1640     9.1370    16.1430 os         1 L67      -0.379283
      3 C12         40.4580     9.5710    16.3350 ca         1 L67       0.346920
      4 C11         41.4770     8.7480    16.8520 ca         1 L67      -0.265917
      5 C10         42.7760     9.2630    17.0200 ca         1 L67      -0.219875
      6 C9          43.0550    10.5990    16.6720 ca         1 L67      -0.126683
      7 C8          42.0420    11.4360    16.1550 ca         1 L67       0.082323
      8 C5          42.3310    12.8210    15.7960 cc         1 L67       0.043209
      9 S1          43.3750    13.7660    16.8260 ss         1 L67      -0.157933
     10 C4          43.2100    15.1800    15.7980 cc         1 L67      -0.084222
     11 C7          43.9500    16.3950    16.2110 c          1 L67       0.799276
     12 O4          43.8580    17.4210    15.5030 o          1 L67      -0.753915
     13 O5          44.6460    16.3660    17.2510 o          1 L67      -0.753915
     14 C3          42.3880    14.9220    14.7240 cd         1 L67       0.239962
     15 O3          42.0600    15.8350    13.7840 os         1 L67      -0.305516
     16 C2          40.8300    16.5040    14.0280 c3         1 L67      -0.023221
     17 C1          40.5470    17.5470    12.9450 c          1 L67       0.927118
     18 O2          41.4120    17.7290    12.0590 o          1 L67      -0.858354
     19 O1          39.4650    18.1680    13.0340 o          1 L67      -0.858354
     20 C6          41.9070    13.5790    14.7350 cd         1 L67      -0.145285
     21 BR1         40.7850    12.9060    13.3480 br         1 L67      -0.078112
     22 C13         40.7420    10.9080    15.9890 ca         1 L67      -0.254280
     23 HA1         37.7990     7.6060    16.2760 h1         1 L67       0.046431
     24 HA2         39.4360     7.0870    15.8940 h1         1 L67       0.046431
     25 HA3         39.0170     7.6030    17.5460 h1         1 L67       0.046431
     26 H5          41.2910     7.7210    17.1260 ha         1 L67       0.132888
     27 H4          43.5590     8.6320    17.4140 ha         1 L67       0.152460
     28 H3          44.0580    10.9800    16.7990 ha         1 L67       0.120120
     29 H1          40.0170    15.7770    14.0510 h1         1 L67       0.041916
     30 H2          40.8450    17.0110    14.9940 h1         1 L67       0.041916
     31 H6          39.9460    11.5250    15.5990 ha         1 L67       0.150741
@<TRIPOS>BOND
     1     1     2 1   
     2     1    23 1   
     3     1    24 1   
     4     1    25 1   
     5     2     3 1   
     6     3     4 ar  
     7     3    22 ar  
     8     4     5 ar  
     9     4    26 1   
    10     5     6 ar  
    11     5    27 1   
    12     6     7 ar  
    13     6    28 1   
    14     7     8 1   
    15     7    22 ar  
    16     8     9 1   
    17     8    20 2   
    18     9    10 1   
    19    10    11 1   
    20    10    14 2   
    21    11    12 1   
    22    11    13 1   
    23    14    15 1   
    24    14    20 1   
    25    15    16 1   
    26    16    17 1   
    27    16    29 1   
    28    16    30 1   
    29    17    18 1   
    30    17    19 1   
    31    20    21 1   
    32    22    31 1   
@<TRIPOS>SUBSTRUCTURE
     1 L67         1 TEMP              0 ****  ****    0 ROOT
