@<TRIPOS>MOLECULE
L50
   44    46     1     0     0
SMALL
resp


@<TRIPOS>ATOM
      1 O1           3.7790   -49.8550     7.0490 o          1 L50      -0.796970
      2 C1           2.9870   -48.9540     6.6750 c          1 L50       0.891345
      3 O2           3.3670   -47.7710     6.5280 o          1 L50      -0.796970
      4 C2           1.5740   -49.3350     6.4120 cc         1 L50       0.043399
      5 C3          -0.1190   -50.8650     6.3660 ca         1 L50       0.262795
      6 C4          -0.9350   -52.0080     6.4730 ca         1 L50      -0.333430
      7 C5          -2.2980   -51.9240     6.1500 ca         1 L50      -0.176229
      8 C6          -2.8390   -50.6990     5.7160 ca         1 L50      -0.181428
      9 C7          -2.0220   -49.5500     5.6230 ca         1 L50      -0.026081
     10 C8          -0.6360   -49.6060     5.9540 ca         1 L50       0.134784
     11 C9           0.4440   -48.6410     6.0160 cd         1 L50      -0.292094
     12 C10          0.3300   -47.1710     5.7540 c3         1 L50       0.054863
     13 C11         -0.1580   -46.4330     7.0120 c3         1 L50       0.209504
     14 C12         -0.6380   -45.0060     6.7270 c3         1 L50      -0.015086
     15 O3          -1.8220   -45.0470     5.9390 os         1 L50      -0.497822
     16 C13         -3.0480   -45.1370     6.5650 ca         1 L50       0.704232
     17 C16         -3.2350   -45.4600     7.9290 ca         1 L50      -0.620664
     18 C15         -4.5320   -45.6030     8.4610 ca         1 L50       0.365619
     19 CC1         -4.6970   -46.0230     9.9030 c3         1 L50      -0.273710
     20 C14         -5.6610   -45.3990     7.6390 ca         1 L50      -0.283120
     21 CL1         -7.2510   -45.6150     8.2750 cl         1 L50      -0.135570
     22 C17         -5.4840   -45.0380     6.2880 ca         1 L50       0.365619
     23 CH1         -6.6770   -44.8280     5.3720 c3         1 L50      -0.273710
     24 C18         -4.1810   -44.9220     5.7570 ca         1 L50      -0.620664
     25 CL2         -2.7590   -48.0670     5.1130 cl         1 L50      -0.147073
     26 H1          -0.5070   -52.9450     6.8060 ha         1 L50       0.179005
     27 H2          -2.9290   -52.8030     6.2360 ha         1 L50       0.142162
     28 H3          -3.8920   -50.6530     5.4650 ha         1 L50       0.129517
     29 H5          -0.3550   -46.9810     4.9220 hc         1 L50       0.041380
     30 H6           1.2820   -46.7550     5.4390 hc         1 L50       0.041380
     31 H7           0.6480   -46.4140     7.7550 hc         1 L50      -0.044445
     32 H8          -0.9700   -47.0030     7.4650 hc         1 L50      -0.044445
     33 H9           0.1310   -44.4720     6.1650 h1         1 L50       0.085707
     34 H10         -0.7740   -44.4350     7.6480 h1         1 L50       0.085707
     35 H11         -2.3880   -45.6250     8.5740 ha         1 L50       0.228734
     36 HC1         -5.3630   -45.3420    10.4440 hc         1 L50       0.082031
     37 HC2         -5.1210   -47.0320     9.9630 hc         1 L50       0.082031
     38 HC3         -3.7380   -46.0410    10.4320 hc         1 L50       0.082031
     39 HH1         -6.3690   -44.5230     4.3710 hc         1 L50       0.082031
     40 HH2         -7.2390   -45.7620     5.2800 hc         1 L50       0.082031
     41 HH3         -7.3360   -44.0650     5.7750 hc         1 L50       0.082031
     42 H19         -4.0440   -44.6630     4.7160 ha         1 L50       0.228734
     43 N1           1.2280   -50.6670     6.6110 na         1 L50      -0.503851
     44 H            1.9290   -51.3490     6.9070 hn         1 L50       0.376695
@<TRIPOS>BOND
     1     1     2 1   
     2     2     3 1   
     3     2     4 1   
     4     4    11 2   
     5     4    43 1   
     6     5     6 ar  
     7     5    10 ar  
     8     5    43 1   
     9     6     7 ar  
    10     6    26 1   
    11     7     8 ar  
    12     7    27 1   
    13     8     9 ar  
    14     8    28 1   
    15     9    10 ar  
    16     9    25 1   
    17    10    11 1   
    18    11    12 1   
    19    12    13 1   
    20    12    29 1   
    21    12    30 1   
    22    13    14 1   
    23    13    31 1   
    24    13    32 1   
    25    14    15 1   
    26    14    33 1   
    27    14    34 1   
    28    15    16 1   
    29    16    17 ar  
    30    16    24 ar  
    31    17    18 ar  
    32    17    35 1   
    33    18    19 1   
    34    18    20 ar  
    35    19    36 1   
    36    19    37 1   
    37    19    38 1   
    38    20    21 1   
    39    20    22 ar  
    40    22    23 1   
    41    22    24 ar  
    42    23    39 1   
    43    23    40 1   
    44    23    41 1   
    45    24    42 1   
    46    43    44 1   
@<TRIPOS>SUBSTRUCTURE
     1 L50         1 TEMP              0 ****  ****    0 ROOT
