@<TRIPOS>MOLECULE
L7E
   46    49     1     0     0
SMALL
resp


@<TRIPOS>ATOM
      1 CP1         14.8620     4.8350     1.1620 c3         1 L7E       0.039984
      2 OP1         15.5060     3.6190     0.8240 os         1 L7E      -0.366958
      3 C13         15.5030     3.2550    -0.5040 ca         1 L7E       0.172147
      4 C12         15.3200     4.1380    -1.5910 ca         1 L7E       0.220996
      5 N11         15.3570     3.7400    -2.8750 nb         1 L7E      -0.564534
      6 C10         15.5480     2.4300    -3.1300 ca         1 L7E       0.251817
      7 C9          15.7090     1.4390    -2.1360 cp         1 L7E      -0.121332
      8 C8          15.8420    -0.0010    -2.4610 cp         1 L7E       0.015569
      9 C7          16.3310    -0.4080    -3.7130 ca         1 L7E      -0.067463
     10 C6          16.3920    -1.7640    -4.0580 ca         1 L7E      -0.231656
     11 C5          15.9460    -2.7510    -3.1640 ca         1 L7E      -0.110849
     12 C4          15.4720    -2.3990    -1.8780 ca         1 L7E       0.159239
     13 C3          14.9080    -3.4070    -0.8340 c3         1 L7E      -0.191368
     14 CA1         15.1740    -4.9290    -0.9310 cx         1 L7E      -0.065621
     15 CA2         14.8730    -5.7780    -2.1410 cx         1 L7E      -0.276518
     16 CA3         16.2960    -5.6350    -1.6620 cx         1 L7E      -0.276518
     17 N3          15.3120    -3.0250     0.5180 nh         1 L7E      -0.641134
     18 C2          14.2750    -2.7110     1.2950 cz         1 L7E       0.806215
     19 N2          14.4150    -2.3940     2.5870 nh         1 L7E      -0.995367
     20 N1          13.1170    -2.7750     0.6180 n          1 L7E      -0.104756
     21 C1          11.7850    -2.4930     1.1590 c3         1 L7E      -0.265053
     22 C16         13.3890    -3.1880    -0.7200 c          1 L7E       0.533355
     23 O1          12.5280    -3.3360    -1.5930 o          1 L7E      -0.437368
     24 C15         15.4440    -1.0120    -1.5540 ca         1 L7E      -0.166795
     25 C14         15.7030     1.8990    -0.8050 ca         1 L7E      -0.110900
     26 HP1         14.8380     4.9420     2.2470 h1         1 L7E       0.067285
     27 HP2         15.3760     5.6990     0.7520 h1         1 L7E       0.067285
     28 HP3         13.8370     4.8360     0.7950 h1         1 L7E       0.067285
     29 H11         15.1540     5.1940    -1.4430 h4         1 L7E       0.087155
     30 H9          15.5350     2.1700    -4.1770 h4         1 L7E       0.070920
     31 H8          16.6510     0.3210    -4.4420 ha         1 L7E       0.151428
     32 H7          16.7660    -2.0340    -5.0340 ha         1 L7E       0.185071
     33 H6          15.9800    -3.7600    -3.5290 ha         1 L7E       0.162737
     34 HA1         14.9010    -5.4270    -0.0010 hc         1 L7E       0.157359
     35 HA2         14.3800    -6.7350    -1.9830 hc         1 L7E       0.161340
     36 HA3         14.5830    -5.2660    -3.0450 hc         1 L7E       0.161340
     37 HA4         16.9750    -5.0800    -2.2910 hc         1 L7E       0.161340
     38 HA5         16.7460    -6.4900    -1.1620 hc         1 L7E       0.161340
     39 H5          16.2890    -2.9960     0.8160 hn         1 L7E       0.456162
     40 H4          13.6580    -2.0900     3.1970 hn         1 L7E       0.487041
     41 H1          11.0200    -2.4650     0.3820 h1         1 L7E       0.148151
     42 H2          11.5050    -3.2430     1.8970 h1         1 L7E       0.148151
     43 H3          11.8050    -1.5230     1.6420 h1         1 L7E       0.148151
     44 H13         15.0480    -0.7090    -0.5980 ha         1 L7E       0.119458
     45 H12         15.8440     1.2080     0.0050 ha         1 L7E       0.138827
     46 H14         15.3520    -2.3780     2.9950 hn         1 L7E       0.487041
@<TRIPOS>BOND
     1     1     2 1   
     2     1    26 1   
     3     1    27 1   
     4     1    28 1   
     5     2     3 1   
     6     3     4 ar  
     7     3    25 ar  
     8     4     5 ar  
     9     4    29 1   
    10     5     6 ar  
    11     6     7 ar  
    12     6    30 1   
    13     7     8 1   
    14     7    25 ar  
    15     8     9 ar  
    16     8    24 ar  
    17     9    10 ar  
    18     9    31 1   
    19    10    11 ar  
    20    10    32 1   
    21    11    12 ar  
    22    11    33 1   
    23    12    13 1   
    24    12    24 ar  
    25    13    14 1   
    26    13    17 1   
    27    13    22 1   
    28    14    15 1   
    29    14    16 1   
    30    14    34 1   
    31    15    16 1   
    32    15    35 1   
    33    15    36 1   
    34    16    37 1   
    35    16    38 1   
    36    17    18 2   
    37    17    39 1   
    38    18    19 1   
    39    18    20 1   
    40    19    40 1   
    41    19    46 1   
    42    20    21 1   
    43    20    22 1   
    44    21    41 1   
    45    21    42 1   
    46    21    43 1   
    47    22    23 2   
    48    24    44 1   
    49    25    45 1   
@<TRIPOS>SUBSTRUCTURE
     1 L7E         1 TEMP              0 ****  ****    0 ROOT
