@<TRIPOS>MOLECULE
L62
   43    46     1     0     0
SMALL
resp


@<TRIPOS>ATOM
      1 O1           3.5440   -47.5770     5.7910 o          1 L62      -0.750211
      2 C1           3.1840   -48.5310     6.5190 c          1 L62       0.826719
      3 O2           3.9580   -48.9720     7.3980 o          1 L62      -0.750211
      4 C2           1.8210   -49.1110     6.3420 cc         1 L62       0.040109
      5 S1           1.6680   -50.7690     6.8730 ss         1 L62      -0.112746
      6 C3          -0.0530   -50.7820     6.5140 ca         1 L62      -0.115915
      7 C4          -0.9250   -51.8580     6.7330 ca         1 L62      -0.129550
      8 C5          -2.2930   -51.7410     6.4180 ca         1 L62      -0.259045
      9 C6          -2.7610   -50.5250     5.8910 ca         1 L62      -0.057480
     10 C7          -1.8910   -49.4330     5.6880 ca         1 L62      -0.134475
     11 C8          -0.4940   -49.5300     5.9750 ca         1 L62       0.383955
     12 C9           0.6270   -48.5700     5.8890 cd         1 L62      -0.372570
     13 C10          0.4730   -47.1120     5.5290 c3         1 L62       0.135358
     14 C11          0.1920   -46.3220     6.8190 c3         1 L62       0.118139
     15 C12         -0.5190   -44.9860     6.6240 c3         1 L62      -0.092873
     16 O3          -1.8770   -45.1800     6.2420 os         1 L62      -0.416340
     17 C13         -2.8340   -45.2640     7.2310 ca         1 L62       0.408538
     18 C14         -4.9260   -45.4940     9.1210 ca         1 L62      -0.395438
     19 C15         -3.6260   -45.9830     9.4210 ca         1 L62      -0.088094
     20 C16         -2.5870   -45.7930     8.5090 ca         1 L62      -0.363230
     21 CL2         -2.6120   -47.9690     5.0980 cl         1 L62      -0.124962
     22 H1          -0.5440   -52.7830     7.1440 ha         1 L62       0.171050
     23 H2          -2.9630   -52.5710     6.5720 ha         1 L62       0.148500
     24 H3          -3.8070   -50.4320     5.6450 ha         1 L62       0.112002
     25 H5          -0.3090   -46.9570     4.7860 hc         1 L62       0.032428
     26 H6           1.3660   -46.7330     5.0250 hc         1 L62       0.032428
     27 H7           1.1350   -46.1800     7.3390 hc         1 L62      -0.021124
     28 H8          -0.4110   -46.9370     7.4640 hc         1 L62      -0.021124
     29 H9          -0.0240   -44.4090     5.8290 h1         1 L62       0.113290
     30 H10         -0.4470   -44.3730     7.5270 h1         1 L62       0.113290
     31 H11         -1.6010   -46.1010     8.7970 ha         1 L62       0.186098
     32 H12         -3.4580   -46.4360    10.3980 ha         1 L62       0.144193
     33 H13         -5.7260   -45.5990     9.8510 ha         1 L62       0.170749
     34 C17         -5.1780   -44.8760     7.8870 ca         1 L62       0.268630
     35 C18         -4.1440   -44.7750     6.9320 ca         1 L62      -0.009683
     36 C19         -4.4210   -44.1640     5.6900 ca         1 L62      -0.178799
     37 C20         -5.7020   -43.6470     5.4010 ca         1 L62      -0.164486
     38 C21         -6.7290   -43.7440     6.3620 ca         1 L62      -0.121021
     39 C22         -6.4650   -44.3620     7.6030 ca         1 L62      -0.286548
     40 H14         -3.6490   -44.0600     4.9340 ha         1 L62       0.149836
     41 H15         -5.8890   -43.1670     4.4470 ha         1 L62       0.132828
     42 H16         -7.7030   -43.3380     6.1480 ha         1 L62       0.129083
     43 H17         -7.2570   -44.4290     8.3270 ha         1 L62       0.148704
@<TRIPOS>BOND
     1     1     2 1   
     2     2     3 1   
     3     2     4 1   
     4     4     5 1   
     5     4    12 2   
     6     5     6 1   
     7     6     7 ar  
     8     6    11 ar  
     9     7     8 ar  
    10     7    22 1   
    11     8     9 ar  
    12     8    23 1   
    13     9    10 ar  
    14     9    24 1   
    15    10    11 ar  
    16    10    21 1   
    17    11    12 1   
    18    12    13 1   
    19    13    14 1   
    20    13    25 1   
    21    13    26 1   
    22    14    15 1   
    23    14    27 1   
    24    14    28 1   
    25    15    16 1   
    26    15    29 1   
    27    15    30 1   
    28    16    17 1   
    29    17    20 ar  
    30    17    35 ar  
    31    18    19 ar  
    32    18    33 1   
    33    18    34 ar  
    34    19    20 ar  
    35    19    32 1   
    36    20    31 1   
    37    34    35 ar  
    38    34    39 ar  
    39    35    36 ar  
    40    36    37 ar  
    41    36    40 1   
    42    37    38 ar  
    43    37    41 1   
    44    38    39 ar  
    45    38    42 1   
    46    39    43 1   
@<TRIPOS>SUBSTRUCTURE
     1 L62         1 TEMP              0 ****  ****    0 ROOT
