@<TRIPOS>MOLECULE
2X
   43    46     1     0     0
SMALL
resp


@<TRIPOS>ATOM
      1 C5          38.2630    36.7140    17.0130 ca         1 2X      -0.508218
      2 C6          34.5450    34.9770    21.1830 c          1 2X       0.649253
      3 C7          37.5970    36.1890    18.1370 ca         1 2X       0.374314
      4 C8          34.0440    38.9760    23.7380 ca         1 2X       1.029991
      5 C10         34.8030    37.8110    21.4410 ca         1 2X      -0.306731
      6 C11         35.2540    37.1250    20.2340 cc         1 2X      -0.243948
      7 C12         37.6230    36.7430    15.7590 ca         1 2X       0.462996
      8 C13         36.3270    36.2160    15.6230 ca         1 2X      -0.405862
      9 C14         35.6720    35.6680    16.7400 ca         1 2X      -0.144383
     10 C15         34.3070    37.0370    22.5110 ca         1 2X       0.341830
     11 C16         34.8520    39.2090    21.6170 ca         1 2X       0.421139
     12 C17         35.1650    35.7820    20.1250 cd         1 2X       0.121207
     13 C18         36.2930    35.6640    18.0030 ca         1 2X       0.158502
     14 C19         33.6690    34.8320    23.4620 c3         1 2X      -0.252011
     15 F1          38.1960    36.1970    19.3280 f          1 2X      -0.184602
     16 O2          35.6500    35.0620    19.0540 os         1 2X      -0.331704
     17 N1          34.4790    39.7920    22.7770 nb         1 2X      -0.829220
     18 O3          34.3290    33.7760    21.0230 o          1 2X      -0.559849
     19 N2          34.2120    35.6180    22.3420 n          1 2X      -0.152780
     20 N3          33.9310    37.6500    23.6560 nb         1 2X      -0.512071
     21 N4          33.6720    39.5650    24.9270 nh         1 2X      -0.902399
     22 H9          39.2580    37.1160    17.1170 ha         1 2X       0.246958
     23 H11         35.7030    37.7360    19.4670 ha         1 2X       0.161690
     24 H12         35.8370    36.2250    14.6600 ha         1 2X       0.218673
     25 H13         34.6920    35.2300    16.6230 ha         1 2X       0.195776
     26 H14         35.2180    39.8560    20.8360 h4         1 2X       0.101908
     27 H15         34.0540    35.1880    24.4180 h1         1 2X       0.124702
     28 H16         32.5820    34.9190    23.4830 h1         1 2X       0.124702
     29 H17         33.9200    33.7710    23.4230 h1         1 2X       0.124702
     30 H18         33.7900    40.5680    24.9710 hn         1 2X       0.412849
     31 F2          38.2360    37.2740    14.7020 f          1 2X      -0.213102
     32 OW1         32.2510    36.7430    25.4770 os         1 2X      -0.446296
     33 CW1         31.2660    37.8710    25.1390 c3         1 2X       0.125778
     34 CW2         31.6300    38.9840    26.1240 c3         1 2X      -0.086094
     35 CW3         33.1590    38.9290    26.1350 c3         1 2X       0.320568
     36 CW4         33.4790    37.4280    26.1050 c3         1 2X       0.077450
     37 HW1         30.1980    37.5560    25.2180 h1         1 2X       0.042149
     38 HW2         31.4460    38.2290    24.0960 h1         1 2X       0.042149
     39 HW3         31.2330    39.9820    25.8190 hc         1 2X       0.024474
     40 HW4         31.2330    38.7390    27.1390 hc         1 2X       0.024474
     41 HW5         33.6040    39.4520    27.0150 h1         1 2X       0.055483
     42 HW6         33.6330    37.0530    27.1460 h1         1 2X       0.047776
     43 HW7         34.4150    37.2220    25.5320 h1         1 2X       0.047776
@<TRIPOS>BOND
     1     1     3 ar  
     2     1     7 ar  
     3     1    22 1   
     4     2    12 1   
     5     2    18 2   
     6     2    19 1   
     7     3    13 ar  
     8     3    15 1   
     9     4    17 ar  
    10     4    20 ar  
    11     4    21 1   
    12     5     6 1   
    13     5    10 ar  
    14     5    11 ar  
    15     6    12 2   
    16     6    23 1   
    17     7     8 ar  
    18     7    31 1   
    19     8     9 ar  
    20     8    24 1   
    21     9    13 ar  
    22     9    25 1   
    23    10    19 1   
    24    10    20 ar  
    25    11    17 ar  
    26    11    26 1   
    27    12    16 1   
    28    13    16 1   
    29    14    19 1   
    30    14    27 1   
    31    14    28 1   
    32    14    29 1   
    33    21    30 1   
    34    21    35 1   
    35    32    33 1   
    36    32    36 1   
    37    33    34 1   
    38    33    37 1   
    39    33    38 1   
    40    34    35 1   
    41    34    39 1   
    42    34    40 1   
    43    35    36 1   
    44    35    41 1   
    45    36    42 1   
    46    36    43 1   
@<TRIPOS>SUBSTRUCTURE
     1 2X         1 TEMP              0 ****  ****    0 ROOT
