@<TRIPOS>MOLECULE
2P
   58    61     1     0     0
SMALL
resp


@<TRIPOS>ATOM
      1 C5          38.2630    36.7140    17.0130 ca         1 2P      -0.508900
      2 C6          34.5450    34.9770    21.1830 c          1 2P       0.650793
      3 C7          37.5970    36.1890    18.1370 ca         1 2P       0.370175
      4 C8          34.0440    38.9760    23.7380 ca         1 2P       1.095820
      5 C10         34.8030    37.8110    21.4410 ca         1 2P      -0.362678
      6 C11         35.2540    37.1250    20.2340 cc         1 2P      -0.230993
      7 C12         37.6230    36.7430    15.7590 ca         1 2P       0.461432
      8 C13         36.3270    36.2160    15.6230 ca         1 2P      -0.406784
      9 C14         35.6720    35.6680    16.7400 ca         1 2P      -0.150786
     10 C15         34.3070    37.0370    22.5110 ca         1 2P       0.505421
     11 C16         34.8520    39.2090    21.6170 ca         1 2P       0.417620
     12 C17         35.1650    35.7820    20.1250 cd         1 2P       0.135966
     13 C18         36.2930    35.6640    18.0030 ca         1 2P       0.176637
     14 F1          38.1960    36.1970    19.3280 f          1 2P      -0.186936
     15 O2          35.6500    35.0620    19.0540 os         1 2P      -0.345286
     16 N1          34.4790    39.7920    22.7770 nb         1 2P      -0.827739
     17 O3          34.3290    33.7760    21.0230 o          1 2P      -0.538205
     18 N2          34.2120    35.6180    22.3420 n          1 2P      -0.293674
     19 N3          33.9310    37.6500    23.6560 nb         1 2P      -0.654210
     20 N4          33.6720    39.5650    24.9270 nh         1 2P      -0.973192
     21 H9          39.2580    37.1160    17.1170 ha         1 2P       0.247613
     22 H11         35.7030    37.7360    19.4670 ha         1 2P       0.159071
     23 H12         35.8370    36.2250    14.6600 ha         1 2P       0.219870
     24 H13         34.6920    35.2300    16.6230 ha         1 2P       0.198213
     25 H14         35.2180    39.8560    20.8360 h4         1 2P       0.106075
     26 H18         33.7900    40.5680    24.9710 hn         1 2P       0.406027
     27 F2          38.2360    37.2740    14.7020 f          1 2P      -0.212631
     28 C2          32.3860    39.3430    28.5030 c3         1 2P       0.249712
     29 C1          32.8830    39.9950    27.2020 c3         1 2P      -0.353911
     30 C9          33.1620    38.9330    26.1270 c3         1 2P       0.547560
     31 C4          34.1670    37.8860    26.6360 c3         1 2P      -0.353911
     32 C3          33.6710    37.2350    27.9360 c3         1 2P       0.249712
     33 O1          33.3910    38.2970    29.0120 os         1 2P      -0.449034
     34 C19         33.6780    34.8440    23.4440 c3         1 2P      -0.052195
     35 CB1         34.6980    33.7920    23.8680 c3         1 2P       0.007360
     36 CB2         34.1350    32.9770    25.0300 c3         1 2P      -0.204189
     37 SG1         32.8680    32.3000    24.5980 s6         1 2P       1.181816
     38 OG1         33.1860    31.4090    23.4570 o          1 2P      -0.601002
     39 OG2         31.8490    33.3440    24.3400 o          1 2P      -0.601002
     40 CG3         32.3900    31.4500    25.7370 c3         1 2P      -0.545871
     41 H3          31.4000    38.8530    28.3200 h1         1 2P       0.009487
     42 H4          32.2220    40.1260    29.2830 h1         1 2P       0.009487
     43 H1          33.8170    40.5710    27.4080 hc         1 2P       0.117002
     44 H2          32.1250    40.7260    26.8280 hc         1 2P       0.117002
     45 H10         32.2070    38.4260    25.8480 h1         1 2P      -0.010321
     46 H7          34.3310    37.1040    25.8550 hc         1 2P       0.117002
     47 H8          35.1540    38.3770    26.8180 hc         1 2P       0.117002
     48 H5          32.7370    36.6590    27.7310 h1         1 2P       0.009487
     49 H6          34.4290    36.5040    28.3100 h1         1 2P       0.009487
     50 H16         33.4620    35.5230    24.3060 h1         1 2P       0.095739
     51 H17         32.7330    34.3390    23.1210 h1         1 2P       0.095739
     52 HB1         34.9140    33.1120    23.0060 hc         1 2P       0.061980
     53 HB2         35.6430    34.2970    24.1910 hc         1 2P       0.061980
     54 HB3         33.9190    33.6570    25.8920 h1         1 2P       0.055403
     55 HC5         34.8830    32.2060    25.3410 h1         1 2P       0.055403
     56 HG1         32.1430    32.1040    26.6120 h1         1 2P       0.181452
     57 HG2         31.4760    30.8860    25.4240 h1         1 2P       0.181452
     58 HG3         33.1940    30.7280    26.0270 h1         1 2P       0.181452
@<TRIPOS>BOND
     1     1     3 ar  
     2     1     7 ar  
     3     1    21 1   
     4     2    12 1   
     5     2    17 2   
     6     2    18 1   
     7     3    13 ar  
     8     3    14 1   
     9     4    16 ar  
    10     4    19 ar  
    11     4    20 1   
    12     5     6 1   
    13     5    10 ar  
    14     5    11 ar  
    15     6    12 2   
    16     6    22 1   
    17     7     8 ar  
    18     7    27 1   
    19     8     9 ar  
    20     8    23 1   
    21     9    13 ar  
    22     9    24 1   
    23    10    18 1   
    24    10    19 ar  
    25    11    16 ar  
    26    11    25 1   
    27    12    15 1   
    28    13    15 1   
    29    18    34 1   
    30    20    26 1   
    31    20    30 1   
    32    28    29 1   
    33    28    33 1   
    34    28    41 1   
    35    28    42 1   
    36    29    30 1   
    37    29    43 1   
    38    29    44 1   
    39    30    31 1   
    40    30    45 1   
    41    31    32 1   
    42    31    46 1   
    43    31    47 1   
    44    32    33 1   
    45    32    48 1   
    46    32    49 1   
    47    34    35 1   
    48    34    50 1   
    49    34    51 1   
    50    35    36 1   
    51    35    52 1   
    52    35    53 1   
    53    36    37 1   
    54    36    54 1   
    55    36    55 1   
    56    37    38 2   
    57    37    39 2   
    58    37    40 1   
    59    40    56 1   
    60    40    57 1   
    61    40    58 1   
@<TRIPOS>SUBSTRUCTURE
     1 2P         1 TEMP              0 ****  ****    0 ROOT
