@<TRIPOS>MOLECULE
2GG
   48    51     1     0     0
SMALL
resp


@<TRIPOS>ATOM
      1  C5          38.260     36.710     17.010 ca         1 2GG      -0.509311
      2  C6          34.540     34.970     21.180 c          1 2GG       0.645560
      3  C7          37.590     36.180     18.130 ca         1 2GG       0.375435
      4  C8          34.040     38.970     23.730 ca         1 2GG       1.189683
      5  C10         34.800     37.810     21.440 ca         1 2GG      -0.409234
      6  C11         35.250     37.120     20.230 cc         1 2GG      -0.200591
      7  C12         37.620     36.740     15.750 ca         1 2GG       0.466258
      8  C13         36.320     36.210     15.620 ca         1 2GG      -0.410033
      9  C14         35.670     35.660     16.740 ca         1 2GG      -0.137013
     10  C15         34.300     37.030     22.510 ca         1 2GG       0.509498
     11  C16         34.850     39.200     21.610 ca         1 2GG       0.447150
     12  C17         35.160     35.780     20.120 cd         1 2GG       0.090671
     13  C18         36.290     35.660     18.000 ca         1 2GG       0.147480
     14  C19         33.660     34.830     23.460 c3         1 2GG      -0.220901
     15  F1          38.190     36.190     19.320 f          1 2GG      -0.183771
     16  O2          35.650     35.060     19.050 os         1 2GG      -0.317292
     17  N1          34.470     39.790     22.770 nb         1 2GG      -0.850913
     18  O3          34.320     33.770     21.020 o          1 2GG      -0.556337
     19  N2          34.210     35.610     22.340 n          1 2GG      -0.158549
     20  N3          33.930     37.650     23.650 nb         1 2GG      -0.726358
     21  N4          33.670     39.560     24.920 nh         1 2GG      -1.059325
     22  H9          39.250     37.110     17.110 ha         1 2GG       0.247663
     23  H11         35.700     37.730     19.460 ha         1 2GG       0.159489
     24  H12         35.830     36.220     14.660 ha         1 2GG       0.220050
     25  H13         34.690     35.230     16.620 ha         1 2GG       0.194867
     26  H14         35.210     39.850     20.830 h4         1 2GG       0.104174
     27  H15         34.050     35.180     24.410 h1         1 2GG       0.113341
     28  H16         32.580     34.910     23.480 h1         1 2GG       0.113341
     29  H17         33.920     33.770     23.420 h1         1 2GG       0.113341
     30  H18         33.790     40.560     24.970 hn         1 2GG       0.426767
     31  F2          38.230     37.270     14.700 f          1 2GG      -0.212226
     32  BC2         32.300     38.790     28.390 c3         1 2GG      -0.242452
     33  BC1         32.810     39.630     27.210 c3         1 2GG      -0.208694
     34  BC9         33.150     38.750     26.000 c3         1 2GG       0.545404
     35  BC4         34.170     37.660     26.380 c3         1 2GG      -0.208694
     36  BC3         33.660     36.820     27.560 c3         1 2GG      -0.242452
     37  BH3         31.330     38.300     28.110 h1         1 2GG       0.114188
     38  BH4         32.090     39.440     29.270 h1         1 2GG       0.114188
     39  BH1         33.720     40.200     27.530 hc         1 2GG       0.106333
     40  BH2         32.040     40.390     26.920 hc         1 2GG       0.106333
     41 BH10         32.210     38.260     25.620 h1         1 2GG      -0.021099
     42  BH7         34.380     37.010     25.500 hc         1 2GG       0.106333
     43  BH8         35.130     38.150     26.670 hc         1 2GG       0.106333
     44  BH5         32.750     36.250     27.250 h1         1 2GG       0.114188
     45  BH6         34.430     36.060     27.850 h1         1 2GG       0.114188
     46  SK1         33.330     37.700     28.790 s6         1 2GG       1.085567
     47  OK1         34.570     38.390     29.200 o          1 2GG      -0.601289
     48  OK2         32.700     36.840     29.820 o          1 2GG      -0.601289
@<TRIPOS>BOND
     1     1     3 ar  
     2     1     7 ar  
     3     1    22 1   
     4     2    12 1   
     5     2    18 2   
     6     2    19 1   
     7     3    13 ar  
     8     3    15 1   
     9     4    17 ar  
    10     4    20 ar  
    11     4    21 1   
    12     5     6 1   
    13     5    10 ar  
    14     5    11 ar  
    15     6    12 2   
    16     6    23 1   
    17     7     8 ar  
    18     7    31 1   
    19     8     9 ar  
    20     8    24 1   
    21     9    13 ar  
    22     9    25 1   
    23    10    19 1   
    24    10    20 ar  
    25    11    17 ar  
    26    11    26 1   
    27    12    16 1   
    28    13    16 1   
    29    14    19 1   
    30    14    27 1   
    31    14    28 1   
    32    14    29 1   
    33    21    30 1   
    34    21    34 1   
    35    32    33 1   
    36    32    37 1   
    37    32    38 1   
    38    32    46 1   
    39    33    34 1   
    40    33    39 1   
    41    33    40 1   
    42    34    35 1   
    43    34    41 1   
    44    35    36 1   
    45    35    42 1   
    46    35    43 1   
    47    36    44 1   
    48    36    45 1   
    49    36    46 1   
    50    46    47 2   
    51    46    48 2   
@<TRIPOS>SUBSTRUCTURE
     1 2GG         1 TEMP              0 ****  ****    0 ROOT
