@<TRIPOS>MOLECULE
L43
   44    47     1     0     0
SMALL
resp


@<TRIPOS>ATOM
      1 O1           3.5640   -47.8840     6.3330 o          1 L43      -0.795897
      2 C1           2.9990   -48.9050     6.7870 c          1 L43       0.875257
      3 O2           3.5890   -49.7100     7.5470 o          1 L43      -0.795897
      4 C2           1.5870   -49.1580     6.4240 cc         1 L43       0.045863
      5 C3          -0.3140   -50.4260     6.4860 ca         1 L43       0.362935
      6 C4          -1.3040   -51.4030     6.6990 ca         1 L43      -0.381333
      7 C5          -2.5850   -51.2160     6.1480 ca         1 L43      -0.112745
      8 C6          -2.8630   -50.0630     5.3950 ca         1 L43      -0.260735
      9 C7          -1.8630   -49.0920     5.1850 ca         1 L43      -0.187075
     10 C8          -0.5600   -49.2480     5.7210 ca         1 L43       0.027677
     11 C9           0.6470   -48.4590     5.6950 cd         1 L43      -0.198695
     12 C10          0.8260   -47.1230     5.0260 c3         1 L43       0.097357
     13 C11          0.8820   -45.9480     6.0230 c3         1 L43      -0.026389
     14 C12         -0.3510   -45.8390     6.9290 c3         1 L43      -0.104216
     15 O3          -1.4580   -45.3870     6.1600 os         1 L43      -0.354974
     16 C13         -2.6730   -45.2520     6.7940 ca         1 L43       0.456120
     17 C17         -4.9580   -44.3710     6.6680 ca         1 L43      -0.200536
     18 C18         -3.6850   -44.5620     6.0970 ca         1 L43      -0.312115
     19 H1          -1.0810   -52.2830     7.2830 ha         1 L43       0.173860
     20 H2          -3.3510   -51.9590     6.3080 ha         1 L43       0.118219
     21 H3          -3.8480   -49.9190     4.9760 ha         1 L43       0.133677
     22 H4          -2.0910   -48.2070     4.6080 ha         1 L43       0.167250
     23 H5           0.0170   -46.9560     4.3170 hc         1 L43      -0.003397
     24 H6           1.7410   -47.1290     4.4310 hc         1 L43      -0.003397
     25 H7           1.0220   -45.0110     5.4830 hc         1 L43       0.049138
     26 H8           1.7640   -46.0600     6.6510 hc         1 L43       0.049138
     27 H9          -0.1560   -45.1260     7.7290 h1         1 L43       0.107042
     28 H10         -0.5520   -46.8060     7.3930 h1         1 L43       0.107042
     29 H19         -3.4770   -44.1650     5.1150 ha         1 L43       0.172414
     30 H22         -5.7170   -43.8320     6.1170 ha         1 L43       0.156357
     31 C16         -2.9610   -45.7680     8.0830 ca         1 L43      -0.473241
     32 C15         -4.2420   -45.6030     8.6500 ca         1 L43       0.224189
     33 C14         -5.2430   -44.8900     7.9460 ca         1 L43       0.100731
     34 CM1         -6.5180   -44.7120     8.5220 ca         1 L43      -0.229480
     35 CM2         -6.8020   -45.2570     9.7910 ca         1 L43      -0.159880
     36 CM3         -5.8100   -45.9820    10.4850 ca         1 L43      -0.134742
     37 CM4         -4.5320   -46.1530     9.9160 ca         1 L43      -0.258112
     38 N1           1.0040   -50.3230     6.8930 na         1 L43      -0.567164
     39 HM1         -7.2850   -44.1650     7.9950 ha         1 L43       0.143085
     40 HM2         -7.7780   -45.1180    10.2340 ha         1 L43       0.131076
     41 HM3         -6.0320   -46.4020    11.4580 ha         1 L43       0.132302
     42 HM4         -3.7790   -46.7040    10.4590 ha         1 L43       0.158666
     43 H11         -2.2210   -46.3080     8.6520 ha         1 L43       0.185658
     44 H            1.5370   -50.9670     7.4620 hn         1 L43       0.384968
@<TRIPOS>BOND
     1     1     2 1   
     2     2     3 1   
     3     2     4 1   
     4     4    11 2   
     5     4    38 1   
     6     5     6 ar  
     7     5    10 ar  
     8     5    38 1   
     9     6     7 ar  
    10     6    19 1   
    11     7     8 ar  
    12     7    20 1   
    13     8     9 ar  
    14     8    21 1   
    15     9    10 ar  
    16     9    22 1   
    17    10    11 1   
    18    11    12 1   
    19    12    13 1   
    20    12    23 1   
    21    12    24 1   
    22    13    14 1   
    23    13    25 1   
    24    13    26 1   
    25    14    15 1   
    26    14    27 1   
    27    14    28 1   
    28    15    16 1   
    29    16    18 ar  
    30    16    31 ar  
    31    17    18 ar  
    32    17    30 1   
    33    17    33 ar  
    34    18    29 1   
    35    31    32 ar  
    36    31    43 1   
    37    32    33 ar  
    38    32    37 ar  
    39    33    34 ar  
    40    34    35 ar  
    41    34    39 1   
    42    35    36 ar  
    43    35    40 1   
    44    36    37 ar  
    45    36    41 1   
    46    37    42 1   
    47    38    44 1   
@<TRIPOS>SUBSTRUCTURE
     1 L43         1 TEMP              0 ****  ****    0 ROOT
