@<TRIPOS>MOLECULE
L66
   43    46     1     0     0
SMALL
resp


@<TRIPOS>ATOM
      1 O1           3.5630   -47.8390     5.6650 o          1 L66      -0.736388
      2 C1           3.0550   -48.6450     6.4690 c          1 L66       0.786696
      3 O2           3.7180   -49.0440     7.4480 o          1 L66      -0.736388
      4 C2           1.6400   -49.0780     6.2870 cc         1 L66       0.047174
      5 S1           1.2180   -50.6020     7.0270 ss         1 L66      -0.114134
      6 C3          -0.4520   -50.4730     6.4810 ca         1 L66      -0.017369
      7 C4          -1.5140   -51.3850     6.6850 ca         1 L66       0.013180
      8 C5          -2.8050   -51.0840     6.2160 ca         1 L66      -0.112492
      9 C6          -3.0350   -49.8730     5.5480 ca         1 L66      -0.209035
     10 C7          -1.9700   -48.9820     5.3250 ca         1 L66      -0.253215
     11 C8          -0.6470   -49.2500     5.7660 ca         1 L66       0.232031
     12 C9           0.5740   -48.4760     5.6340 cd         1 L66      -0.263187
     13 C10          0.6520   -47.1470     4.9150 c3         1 L66       0.131544
     14 C11          0.7580   -45.9330     5.8540 c3         1 L66      -0.089717
     15 C12         -0.2820   -45.9200     6.9850 c3         1 L66      -0.039506
     16 O3          -1.5970   -45.7350     6.4760 os         1 L66      -0.288294
     17 C13         -2.6620   -45.8430     7.3610 ca         1 L66       0.222285
     18 C14         -4.8920   -46.0670     9.1170 ca         1 L66      -0.377828
     19 C15         -3.6000   -46.3840     9.5750 ca         1 L66      -0.097829
     20 C16         -2.4950   -46.2650     8.7080 ca         1 L66      -0.280360
     21 CL4         -1.2470   -52.8790     7.5120 cl         1 L66      -0.131706
     22 H2          -3.6230   -51.7840     6.3810 ha         1 L66       0.118634
     23 H3          -4.0330   -49.6210     5.1990 ha         1 L66       0.149463
     24 H4          -2.1700   -48.0560     4.8110 ha         1 L66       0.185803
     25 H5          -0.2390   -47.0220     4.3160 hc         1 L66      -0.002956
     26 H6           1.4900   -47.1450     4.2150 hc         1 L66      -0.002956
     27 H7           0.7050   -45.0110     5.2760 hc         1 L66       0.059721
     28 H8           1.7450   -45.9430     6.3140 hc         1 L66       0.059721
     29 H9          -0.0490   -45.1140     7.6770 h1         1 L66       0.092918
     30 H10         -0.1870   -46.8550     7.5320 h1         1 L66       0.092918
     31 H11         -1.5240   -46.5190     9.1170 ha         1 L66       0.152639
     32 H12         -3.4520   -46.7170    10.5970 ha         1 L66       0.148038
     33 H13         -5.7310   -46.1550     9.7980 ha         1 L66       0.169334
     34 C17         -5.0760   -45.6430     7.7860 ca         1 L66       0.250646
     35 C18         -3.9720   -45.5350     6.9090 ca         1 L66       0.027257
     36 C19         -4.2000   -45.1110     5.5810 ca         1 L66      -0.208035
     37 C20         -5.5000   -44.7950     5.1450 ca         1 L66      -0.148999
     38 C21         -6.5850   -44.9080     6.0210 ca         1 L66      -0.127516
     39 C22         -6.3760   -45.3310     7.3420 ca         1 L66      -0.276917
     40 H14         -3.3780   -45.0160     4.8790 ha         1 L66       0.158323
     41 H15         -5.6640   -44.4660     4.1260 ha         1 L66       0.133008
     42 H16         -7.5880   -44.6720     5.6860 ha         1 L66       0.132374
     43 H17         -7.2210   -45.4120     8.0210 ha         1 L66       0.151121
@<TRIPOS>BOND
     1     1     2 1   
     2     2     3 1   
     3     2     4 1   
     4     4     5 1   
     5     4    12 2   
     6     5     6 1   
     7     6     7 ar  
     8     6    11 ar  
     9     7     8 ar  
    10     7    21 1   
    11     8     9 ar  
    12     8    22 1   
    13     9    10 ar  
    14     9    23 1   
    15    10    11 ar  
    16    10    24 1   
    17    11    12 1   
    18    12    13 1   
    19    13    14 1   
    20    13    25 1   
    21    13    26 1   
    22    14    15 1   
    23    14    27 1   
    24    14    28 1   
    25    15    16 1   
    26    15    29 1   
    27    15    30 1   
    28    16    17 1   
    29    17    20 ar  
    30    17    35 ar  
    31    18    19 ar  
    32    18    33 1   
    33    18    34 ar  
    34    19    20 ar  
    35    19    32 1   
    36    20    31 1   
    37    34    35 ar  
    38    34    39 ar  
    39    35    36 ar  
    40    36    37 ar  
    41    36    40 1   
    42    37    38 ar  
    43    37    41 1   
    44    38    39 ar  
    45    38    42 1   
    46    39    43 1   
@<TRIPOS>SUBSTRUCTURE
     1 L66         1 TEMP              0 ****  ****    0 ROOT
