@<TRIPOS>MOLECULE
L4L
   44    47     1     0     0
SMALL
resp


@<TRIPOS>ATOM
      1 C1          11.7110    -2.3110     1.2620 c3         1 L4L      -0.260842
      2 N1          13.0350    -2.6400     0.7180 n          1 L4L      -0.147990
      3 C2          14.2030    -2.6170     1.3750 cz         1 L4L       0.741085
      4 N2          14.3770    -2.3590     2.6740 nh         1 L4L      -0.966557
      5 N3          15.2270    -2.8950     0.5700 nh         1 L4L      -0.457951
      6 C3          14.8060    -3.2180    -0.7950 c3         1 L4L      -0.426048
      7 CO1         15.1520    -4.6980    -1.0850 ca         1 L4L       0.114967
      8 CO2         14.3050    -5.5760    -1.8010 ca         1 L4L      -0.136073
      9 CO3         14.6500    -6.9310    -1.9840 ca         1 L4L      -0.166951
     10 CO4         15.8620    -7.4260    -1.4790 ca         1 L4L      -0.074496
     11 CO5         16.7310    -6.5660    -0.7970 ca         1 L4L      -0.166951
     12 CO6         16.3650    -5.2250    -0.5910 ca         1 L4L      -0.136073
     13 C4          15.3840    -2.1980    -1.7960 ca         1 L4L       0.356123
     14 C5          15.9240    -2.5920    -3.0420 ca         1 L4L      -0.268630
     15 C6          16.3870    -1.6180    -3.9470 ca         1 L4L      -0.141589
     16 C7          16.3040    -0.2490    -3.6280 ca         1 L4L       0.009827
     17 C8          15.8000     0.1820    -2.3820 cp         1 L4L      -0.308001
     18 C9          15.7080     1.6220    -2.0290 cp         1 L4L       0.516700
     19 C14         15.7060     2.0780    -0.6860 ca         1 L4L       0.064913
     20 N4N         15.5290     3.3730    -0.3400 nb         1 L4L      -0.462649
     21 C12         15.3500     4.2350    -1.3630 ca         1 L4L       0.188060
     22 C11         15.3870     3.8090    -2.7080 ca         1 L4L       0.063818
     23 NS1         15.5690     2.5100    -3.0470 nb         1 L4L      -0.445128
     24 C15         15.3590    -0.8150    -1.4790 ca         1 L4L      -0.152973
     25 C16         13.2850    -2.9800    -0.6450 c          1 L4L       0.652066
     26 O1          12.4100    -3.0280    -1.5170 o          1 L4L      -0.452850
     27 H1          10.9250    -2.8720     0.7570 h1         1 L4L       0.149020
     28 H2          11.6570    -2.5380     2.3270 h1         1 L4L       0.149020
     29 H3          11.5140    -1.2490     1.1210 h1         1 L4L       0.149020
     30 H4          15.3200    -2.3640     3.0640 hn         1 L4L       0.480156
     31 H5          16.2050    -2.8990     0.8580 hn         1 L4L       0.405684
     32 HO2         13.3660    -5.2370    -2.2020 ha         1 L4L       0.147493
     33 HO3         13.9800    -7.5970    -2.5060 ha         1 L4L       0.166526
     34 HO4         16.1270    -8.4630    -1.5950 ha         1 L4L       0.151618
     35 HO5         17.6700    -6.9320    -0.4070 ha         1 L4L       0.166526
     36 HO6         17.0280    -4.6010    -0.0210 ha         1 L4L       0.147493
     37 H6          15.9840    -3.6330    -3.3300 ha         1 L4L       0.205666
     38 H7          16.7980    -1.9160    -4.9020 ha         1 L4L       0.166403
     39 H8          16.6290     0.4810    -4.3550 ha         1 L4L       0.124317
     40 H12         15.8530     1.3930     0.1280 h4         1 L4L       0.090199
     41 H11         15.1810     5.2710    -1.1090 h4         1 L4L       0.085762
     42 H10         15.2470     4.5230    -3.5030 h4         1 L4L       0.110935
     43 H13         14.9460    -0.5020    -0.5320 ha         1 L4L       0.088198
     44 H14         13.6340    -2.0710     3.3100 hn         1 L4L       0.480156
@<TRIPOS>BOND
     1     1     2 1   
     2     1    27 1   
     3     1    28 1   
     4     1    29 1   
     5     2     3 2   
     6     2    25 1   
     7     3     4 1   
     8     3     5 1   
     9     4    30 1   
    10     4    44 1   
    11     5     6 1   
    12     5    31 1   
    13     6     7 1   
    14     6    13 1   
    15     6    25 1   
    16     7     8 ar  
    17     7    12 ar  
    18     8     9 ar  
    19     8    32 1   
    20     9    10 ar  
    21     9    33 1   
    22    10    11 ar  
    23    10    34 1   
    24    11    12 ar  
    25    11    35 1   
    26    12    36 1   
    27    13    14 ar  
    28    13    24 ar  
    29    14    15 ar  
    30    14    37 1   
    31    15    16 ar  
    32    15    38 1   
    33    16    17 ar  
    34    16    39 1   
    35    17    18 1   
    36    17    24 ar  
    37    18    19 ar  
    38    18    23 ar  
    39    19    20 ar  
    40    19    40 1   
    41    20    21 ar  
    42    21    22 ar  
    43    21    41 1   
    44    22    23 ar  
    45    22    42 1   
    46    24    43 1   
    47    25    26 2   
@<TRIPOS>SUBSTRUCTURE
     1 L4L         1 TEMP              0 ****  ****    0 ROOT
