@<TRIPOS>MOLECULE
L3H
   46    49     1     0     0
SMALL
resp


@<TRIPOS>ATOM
      1 C1          11.7680    -1.9960     1.1320 c3         1 L3H      -0.360107
      2 N1          13.0770    -2.4190     0.6250 n          1 L3H      -0.057178
      3 C2          14.2290    -2.5040     1.3140 cz         1 L3H       0.695926
      4 N2          14.3930    -2.2700     2.6190 nh         1 L3H      -0.947135
      5 N3          15.2450    -2.8870     0.5390 nh         1 L3H      -0.488881
      6 C3          14.8080    -3.1960    -0.8190 c3         1 L3H      -0.229779
      7 C4          15.4850    -2.1790    -1.7990 ca         1 L3H       0.089580
      8 C5          16.1730    -2.5180    -2.9930 ca         1 L3H      -0.053491
      9 C6          16.6530    -1.5250    -3.8620 ca         1 L3H      -0.241881
     10 C7          16.4490    -0.1690    -3.5710 ca         1 L3H      -0.074733
     11 C8          15.8250     0.2330    -2.3770 cp         1 L3H      -0.004554
     12 C9          15.5940     1.6730    -2.0930 cp         1 L3H       0.014620
     13 C10         15.3340     2.5850    -3.1440 ca         1 L3H      -0.137597
     14 C11         15.0300     3.9370    -2.8820 ca         1 L3H      -0.198001
     15 C12         15.0030     4.4100    -1.5610 ca         1 L3H      -0.016465
     16 C13         15.3010     3.5360    -0.5050 ca         1 L3H      -0.064614
     17 CL1         15.3000     4.1390     1.1110 cl         1 L3H      -0.093690
     18 C14         15.5920     2.1810    -0.7730 ca         1 L3H      -0.021552
     19 C15         15.3790    -0.7860    -1.5000 ca         1 L3H      -0.131447
     20 CA1         14.9140    -4.7630    -0.9860 cx         1 L3H       0.292459
     21 CA4         14.1550    -5.5340     0.1090 c3         1 L3H      -0.568988
     22 CA2         14.8870    -5.4500    -2.3330 cx         1 L3H      -0.306270
     23 CA3         16.1530    -5.4450    -1.5200 cx         1 L3H      -0.306270
     24 C16         13.3200    -2.8070    -0.7250 c          1 L3H       0.477557
     25 O1          12.4610    -2.8390    -1.6130 o          1 L3H      -0.419769
     26 H1          11.6690    -2.2270     2.1920 h1         1 L3H       0.175813
     27 H2          11.6580    -0.9210     0.9900 h1         1 L3H       0.175813
     28 H3          10.9560    -2.4930     0.6020 h1         1 L3H       0.175813
     29 H4          13.6580    -1.9500     3.2470 hn         1 L3H       0.474178
     30 H5          16.2190    -2.9490     0.8390 hn         1 L3H       0.417898
     31 H6          16.3610    -3.5210    -3.3230 ha         1 L3H       0.141695
     32 H7          17.1600    -1.8030    -4.7760 ha         1 L3H       0.184676
     33 H8          16.7780     0.5690    -4.2850 ha         1 L3H       0.153963
     34 H9          15.3170     2.2430    -4.1690 ha         1 L3H       0.141273
     35 H10         14.7870     4.6130    -3.6880 ha         1 L3H       0.173184
     36 H11         14.7510     5.4410    -1.3550 ha         1 L3H       0.139537
     37 H12         15.8180     1.5270     0.0510 ha         1 L3H       0.105277
     38 H13         14.8800    -0.4710    -0.5960 ha         1 L3H       0.086228
     39 HA6         14.4410    -5.2250     1.1140 hc         1 L3H       0.168770
     40 HA7         13.0750    -5.4270    -0.0010 hc         1 L3H       0.168770
     41 HA8         14.3670    -6.6020     0.0390 hc         1 L3H       0.168770
     42 HA2         14.3560    -6.3970    -2.4160 hc         1 L3H       0.156606
     43 HA3         14.8230    -4.8300    -3.2130 hc         1 L3H       0.156606
     44 HA4         16.9640    -4.8200    -1.8430 hc         1 L3H       0.156606
     45 HA5         16.4620    -6.3800    -1.0570 hc         1 L3H       0.156606
     46 H14         15.3290    -2.3340     3.0220 hn         1 L3H       0.474178
@<TRIPOS>BOND
     1     1     2 1   
     2     1    26 1   
     3     1    27 1   
     4     1    28 1   
     5     2     3 2   
     6     2    24 1   
     7     3     4 1   
     8     3     5 1   
     9     4    29 1   
    10     4    46 1   
    11     5     6 1   
    12     5    30 1   
    13     6     7 1   
    14     6    20 1   
    15     6    24 1   
    16     7     8 ar  
    17     7    19 ar  
    18     8     9 ar  
    19     8    31 1   
    20     9    10 ar  
    21     9    32 1   
    22    10    11 ar  
    23    10    33 1   
    24    11    12 1   
    25    11    19 ar  
    26    12    13 ar  
    27    12    18 ar  
    28    13    14 ar  
    29    13    34 1   
    30    14    15 ar  
    31    14    35 1   
    32    15    16 ar  
    33    15    36 1   
    34    16    17 1   
    35    16    18 ar  
    36    18    37 1   
    37    19    38 1   
    38    20    21 1   
    39    20    22 1   
    40    20    23 1   
    41    21    39 1   
    42    21    40 1   
    43    21    41 1   
    44    22    23 1   
    45    22    42 1   
    46    22    43 1   
    47    23    44 1   
    48    23    45 1   
    49    24    25 2   
@<TRIPOS>SUBSTRUCTURE
     1 L3H         1 TEMP              0 ****  ****    0 ROOT
