@<TRIPOS>MOLECULE
L71
   35    36     1     0     0
SMALL
resp


@<TRIPOS>ATOM
      1 CE1         37.0450     9.0700    15.8290 c3         1 L71       0.112744
      2 OE1         37.5080     8.2230    16.8670 os         1 L71      -0.496218
      3 CB          38.8190     8.1730    17.1490 c          1 L71       0.937766
      4 OB          39.3750     7.2240    17.7050 o          1 L71      -0.660946
      5 N1          39.3910     9.3620    16.7180 n          1 L71      -0.438943
      6 C12         40.7400     9.7890    16.8450 ca         1 L71       0.079078
      7 C11         41.7790     8.9720    17.3120 ca         1 L71      -0.178932
      8 C10         43.0860     9.4570    17.3660 ca         1 L71      -0.233070
      9 C9          43.3650    10.7570    16.9470 ca         1 L71      -0.056462
     10 C8          42.3440    11.5880    16.4780 ca         1 L71       0.052305
     11 C5          42.6250    12.9340    16.0150 cc         1 L71       0.010380
     12 S1          43.6360    14.0250    16.9150 ss         1 L71      -0.143232
     13 C4          43.3650    15.3250    15.7670 cc         1 L71      -0.083260
     14 C7          44.0460    16.6110    16.0500 c          1 L71       0.794461
     15 O5          44.7740    16.6940    17.0640 o          1 L71      -0.753176
     16 O4          43.8840    17.5770    15.2710 o          1 L71      -0.753176
     17 C3          42.5150    14.9210    14.7390 cd         1 L71       0.271494
     18 O3          42.0410    15.7420    13.7730 os         1 L71      -0.312420
     19 C2          40.7600    16.3120    14.0330 c3         1 L71      -0.021415
     20 C1          40.3270    17.2430    12.8990 c          1 L71       0.903440
     21 O1          39.2130    17.8010    13.0110 o          1 L71      -0.848999
     22 O2          41.1150    17.3800    11.9370 o          1 L71      -0.848999
     23 C6          42.1860    13.5750    14.8670 cd         1 L71      -0.180542
     24 BR1         41.1970    12.6900    13.4980 br         1 L71      -0.060620
     25 C13         41.0350    11.0940    16.4480 ca         1 L71      -0.183347
     26 HE1         35.9620     8.9860    15.7390 h1         1 L71       0.050199
     27 HE2         37.2890    10.1120    16.0390 h1         1 L71       0.050199
     28 HE3         37.4890     8.7920    14.8730 h1         1 L71       0.050199
     29 HN2         38.7410    10.0190    16.3140 hn         1 L71       0.255793
     30 H5          41.6050     7.9560    17.6280 ha         1 L71       0.179160
     31 H4          43.8810     8.8220    17.7270 ha         1 L71       0.143634
     32 H3          44.3840    11.1150    16.9780 ha         1 L71       0.109029
     33 H1          40.0360    15.5020    14.1150 h1         1 L71       0.042616
     34 H2          40.7360    16.8460    14.9850 h1         1 L71       0.042616
     35 H6          40.2340    11.7410    16.1190 ha         1 L71       0.168645
@<TRIPOS>BOND
     1     1     2 1   
     2     1    26 1   
     3     1    27 1   
     4     1    28 1   
     5     2     3 1   
     6     3     4 2   
     7     3     5 1   
     8     5     6 1   
     9     5    29 1   
    10     6     7 ar  
    11     6    25 ar  
    12     7     8 ar  
    13     7    30 1   
    14     8     9 ar  
    15     8    31 1   
    16     9    10 ar  
    17     9    32 1   
    18    10    11 1   
    19    10    25 ar  
    20    11    12 1   
    21    11    23 2   
    22    12    13 1   
    23    13    14 1   
    24    13    17 2   
    25    14    15 1   
    26    14    16 1   
    27    17    18 1   
    28    17    23 1   
    29    18    19 1   
    30    19    20 1   
    31    19    33 1   
    32    19    34 1   
    33    20    21 1   
    34    20    22 1   
    35    23    24 1   
    36    25    35 1   
@<TRIPOS>SUBSTRUCTURE
     1 L71         1 TEMP              0 ****  ****    0 ROOT
