@<TRIPOS>MOLECULE
L26
   38    39     1     0     0
SMALL
resp


@<TRIPOS>ATOM
      1  C1         23.9640    12.4500    30.2900 c3         1 L26      -0.346095
      2  C2         23.2570    11.1110    30.5190 c3         1 L26       0.423627
      3  O1         22.1170    11.3550    31.3380 os         1 L26      -0.460474
      4  C3         21.3340    10.2930    31.7570 ca         1 L26       0.901008
      5  N1         21.7030     9.0460    31.3550 nb         1 L26      -0.818114
      6  C4         20.9400     8.0080    31.7250 ca         1 L26       0.792459
      7  C5         19.8170     8.1340    32.5270 ca         1 L26      -0.841734
      8  C6         19.4420     9.4020    32.9320 ca         1 L26       0.791816
      9  N2         18.2880     9.4650    33.7020 nh         1 L26      -0.976170
     10  C7         20.2000    10.5200    32.5450 ca         1 L26      -0.702508
     11  C8         19.8480    11.8870    32.9080 cg         1 L26       0.514501
     12  N3         19.5760    12.9770    33.1890 n1         1 L26      -0.533160
     13  N4         21.4300     6.8390    31.1870 n          1 L26      -0.630723
     14  C9         20.8470     5.6460    31.0340 c          1 L26       0.843766
     15  O2         19.7110     5.3700    31.4140 o          1 L26      -0.622768
     16  C10        21.6400     4.6100    30.2450 c3         1 L26      -0.456745
     17  C11        23.0890     4.4690    30.6920 ca         1 L26       0.185723
     18  C16        23.4110     3.6310    31.7620 ca         1 L26      -0.143083
     19  C15        24.7310     3.5230    32.1960 ca         1 L26      -0.009005
     20 CL15        25.1130     2.5200    33.5450 cl         1 L26      -0.105709
     21  C14        25.7380     4.2390    31.5500 ca         1 L26      -0.042016
     22  C13        25.4250     5.0710    30.4730 ca         1 L26      -0.216316
     23  C12        24.1020     5.1880    30.0460 ca         1 L26      -0.179288
     24  H1         24.8470    12.3250    29.6660 hc         1 L26       0.093011
     25  H2         23.3000    13.1570    29.7920 hc         1 L26       0.093011
     26  H3         24.2760    12.8940    31.2350 hc         1 L26       0.093011
     27  H4         22.9540    10.6740    29.5650 h1         1 L26      -0.018128
     28  H5         23.9410    10.4110    31.0050 h1         1 L26      -0.018128
     29  H6         19.2330     7.2770    32.8170 ha         1 L26       0.316686
     30  H7         17.8290     8.6090    34.0010 hn         1 L26       0.432872
     31  H8         17.8920    10.3660    33.9620 hn         1 L26       0.432872
     32  H9         22.3540     6.9750    30.8230 hn         1 L26       0.299635
     33  H10        21.1450     3.6420    30.2910 hc         1 L26       0.149222
     34  H11        21.5980     4.9430    29.2150 hc         1 L26       0.149222
     35  H16        22.6440     3.0570    32.2590 ha         1 L26       0.150276
     36  H14        26.7580     4.1510    31.8920 ha         1 L26       0.133769
     37  H13        26.2070     5.6290    29.9750 ha         1 L26       0.173440
     38  H12        23.8710     5.8360    29.2120 ha         1 L26       0.150238
@<TRIPOS>BOND
     1     1     2 1   
     2     1    24 1   
     3     1    25 1   
     4     1    26 1   
     5     2     3 1   
     6     2    27 1   
     7     2    28 1   
     8     3     4 1   
     9     4     5 ar  
    10     4    10 ar  
    11     5     6 ar  
    12     6     7 ar  
    13     6    13 1   
    14     7     8 ar  
    15     7    29 1   
    16     8     9 1   
    17     8    10 ar  
    18     9    30 1   
    19     9    31 1   
    20    10    11 1   
    21    11    12 3   
    22    13    14 1   
    23    13    32 1   
    24    14    15 2   
    25    14    16 1   
    26    16    17 1   
    27    16    33 1   
    28    16    34 1   
    29    17    18 ar  
    30    17    23 ar  
    31    18    19 ar  
    32    18    35 1   
    33    19    20 1   
    34    19    21 ar  
    35    21    22 ar  
    36    21    36 1   
    37    22    23 ar  
    38    22    37 1   
    39    23    38 1   
@<TRIPOS>SUBSTRUCTURE
     1 L26         1 TEMP              0 ****  ****    0 ROOT
