@<TRIPOS>MOLECULE
L40
   49    52     1     0     0
SMALL
resp


@<TRIPOS>ATOM
      1 O1           4.0800   -49.9640     6.0930 o          1 L40      -0.796217
      2 C1           3.2340   -49.1040     6.4140 c          1 L40       0.878522
      3 O2           3.5650   -47.9820     6.8520 o          1 L40      -0.796217
      4 C2           1.7940   -49.4290     6.2850 cc         1 L40       0.048781
      5 C3           0.0690   -50.8730     5.8700 ca         1 L40       0.341113
      6 C4          -0.7530   -51.9800     5.5650 ca         1 L40      -0.370824
      7 C5          -2.1510   -51.8510     5.6380 ca         1 L40      -0.117920
      8 C6          -2.7100   -50.6160     6.0100 ca         1 L40      -0.267476
      9 C7          -1.8820   -49.5160     6.3110 ca         1 L40      -0.191239
     10 C8          -0.4710   -49.6140     6.2530 ca         1 L40       0.062488
     11 C9           0.6350   -48.7010     6.4800 cd         1 L40      -0.274693
     12 C10          0.5500   -47.2490     6.8760 c3         1 L40       0.084995
     13 C11         -0.4940   -46.4440     6.0760 c3         1 L40       0.019258
     14 C12         -1.4670   -45.6590     6.9570 c3         1 L40      -0.049985
     15 O3          -2.0460   -46.5550     7.9000 os         1 L40      -0.391884
     16 C13         -3.1690   -46.1730     8.5970 ca         1 L40       0.464151
     17 C18         -3.9070   -44.9990     8.3260 ca         1 L40      -0.434843
     18 C17         -5.0860   -44.7050     9.0370 ca         1 L40       0.437212
     19 C14         -5.5320   -45.5820    10.0520 ca         1 L40      -0.401283
     20 C15         -4.7880   -46.7390    10.3420 ca         1 L40      -0.030132
     21 C16         -3.6200   -47.0350     9.6140 ca         1 L40      -0.387178
     22 H1          -0.3070   -52.9200     5.2760 ha         1 L40       0.172808
     23 H2          -2.7970   -52.6900     5.4150 ha         1 L40       0.119272
     24 H3          -3.7870   -50.5030     6.0690 ha         1 L40       0.133998
     25 H4          -2.3480   -48.5820     6.5780 ha         1 L40       0.156561
     26 H5           1.5070   -46.7430     6.7350 hc         1 L40       0.026135
     27 H6           0.3790   -47.1840     7.9540 hc         1 L40       0.026135
     28 H7          -1.0770   -47.1000     5.4240 hc         1 L40       0.022561
     29 H8           0.0190   -45.7660     5.3980 hc         1 L40       0.022561
     30 H9          -2.2150   -45.2220     6.2970 h1         1 L40       0.109458
     31 H10         -0.9700   -44.8470     7.4910 h1         1 L40       0.109458
     32 H19         -3.6260   -44.3410     7.5290 ha         1 L40       0.182167
     33 H11         -3.0600   -47.9330     9.8260 ha         1 L40       0.181446
     34 H12         -5.1310   -47.4240    11.1120 ha         1 L40       0.136996
     35 H13         -6.4480   -45.3760    10.5890 ha         1 L40       0.178610
     36 N1           1.4410   -50.7110     5.8910 na         1 L40      -0.547900
     37 H            2.1510   -51.4010     5.6700 hn         1 L40       0.380823
     38 OJ1         -5.8560   -43.6370     8.6700 os         1 L40      -0.416159
     39 CJ1         -7.7010   -44.6620     5.0830 ca         1 L40      -0.250990
     40 CJ2         -8.3130   -44.9850     6.3150 ca         1 L40      -0.068735
     41 CJ3         -7.7290   -44.5870     7.5200 ca         1 L40      -0.317619
     42 CJ4         -6.5230   -43.8610     7.5000 ca         1 L40       0.457675
     43 CJ5         -5.9540   -43.4660     6.2720 ca         1 L40      -0.317619
     44 CJ6         -6.5350   -43.8780     5.0620 ca         1 L40      -0.068735
     45 HJ1         -8.1030   -45.0220     4.1480 ha         1 L40       0.146027
     46 HJ2         -9.2200   -45.5730     6.3260 ha         1 L40       0.134714
     47 HJ3         -8.1690   -44.8790     8.4680 ha         1 L40       0.164505
     48 HJ4         -5.0290   -42.9030     6.2500 ha         1 L40       0.164505
     49 HJ5         -6.0780   -43.6150     4.1210 ha         1 L40       0.134714
@<TRIPOS>BOND
     1     1     2 1   
     2     2     3 1   
     3     2     4 1   
     4     4    11 2   
     5     4    36 1   
     6     5     6 ar  
     7     5    10 ar  
     8     5    36 1   
     9     6     7 ar  
    10     6    22 1   
    11     7     8 ar  
    12     7    23 1   
    13     8     9 ar  
    14     8    24 1   
    15     9    10 ar  
    16     9    25 1   
    17    10    11 1   
    18    11    12 1   
    19    12    13 1   
    20    12    26 1   
    21    12    27 1   
    22    13    14 1   
    23    13    28 1   
    24    13    29 1   
    25    14    15 1   
    26    14    30 1   
    27    14    31 1   
    28    15    16 1   
    29    16    17 ar  
    30    16    21 ar  
    31    17    18 ar  
    32    17    32 1   
    33    18    19 ar  
    34    18    38 1   
    35    19    20 ar  
    36    19    35 1   
    37    20    21 ar  
    38    20    34 1   
    39    21    33 1   
    40    36    37 1   
    41    38    42 1   
    42    39    40 ar  
    43    39    44 ar  
    44    39    45 1   
    45    40    41 ar  
    46    40    46 1   
    47    41    42 ar  
    48    41    47 1   
    49    42    43 ar  
    50    43    44 ar  
    51    43    48 1   
    52    44    49 1   
@<TRIPOS>SUBSTRUCTURE
     1 L40         1 TEMP              0 ****  ****    0 ROOT
