@<TRIPOS>MOLECULE
2G
   46    49     1     0     0
SMALL
resp


@<TRIPOS>ATOM
      1 C1          31.6240    38.9530    26.1540 c3         1 2G      -0.334631
      2 C2          31.0950    38.3550    27.4680 c3         1 2G       0.264718
      3 C3          33.0540    38.9790    28.6540 c3         1 2G       0.264718
      4 C4          33.6810    39.6140    27.4030 c3         1 2G      -0.334631
      5 C5          38.2630    36.7140    17.0130 ca         1 2G      -0.318764
      6 O1          31.6350    39.0630    28.5780 os         1 2G      -0.460645
      7 C6          34.5450    34.9770    21.1830 c          1 2G       0.646347
      8 C7          37.5970    36.1890    18.1370 ca         1 2G       0.299225
      9 C8          34.0440    38.9760    23.7380 ca         1 2G       1.148320
     10 C9          33.1560    38.9290    26.1330 c3         1 2G       0.597691
     11 C10         34.8030    37.8110    21.4410 ca         1 2G      -0.390687
     12 C11         35.2540    37.1250    20.2340 cc         1 2G      -0.232369
     13 C12         37.6230    36.7430    15.7590 ca         1 2G      -0.105916
     14 C13         36.3270    36.2160    15.6230 ca         1 2G      -0.209994
     15 C14         35.6720    35.6680    16.7400 ca         1 2G      -0.226155
     16 C15         34.3070    37.0370    22.5110 ca         1 2G       0.498548
     17 C16         34.8520    39.2090    21.6170 ca         1 2G       0.445607
     18 C17         35.1650    35.7820    20.1250 cd         1 2G       0.109221
     19 C18         36.2930    35.6640    18.0030 ca         1 2G       0.271255
     20 C19         33.6690    34.8320    23.4620 c3         1 2G      -0.222102
     21 F1          38.1960    36.1970    19.3280 f          1 2G      -0.193493
     22 O2          35.6500    35.0620    19.0540 os         1 2G      -0.352243
     23 N1          34.4790    39.7920    22.7770 nb         1 2G      -0.849627
     24 O3          34.3290    33.7760    21.0230 o          1 2G      -0.559641
     25 N2          34.2120    35.6180    22.3420 n          1 2G      -0.165748
     26 N3          33.9310    37.6500    23.6560 nb         1 2G      -0.698903
     27 N4          33.6720    39.5650    24.9270 nh         1 2G      -0.995036
     28 H1          31.2200    38.4000    25.3050 hc         1 2G       0.102287
     29 H2          31.2770    39.9810    26.0540 hc         1 2G       0.102287
     30 H3          30.0100    38.4340    27.5070 h1         1 2G       0.004602
     31 H4          31.3430    37.2950    27.5440 h1         1 2G       0.004602
     32 H5          33.3650    37.9380    28.7610 h1         1 2G       0.004602
     33 H6          33.3890    39.5050    29.5480 h1         1 2G       0.004602
     34 H7          33.4270    40.6740    27.3920 hc         1 2G       0.102287
     35 H8          34.7680    39.5450    27.4510 hc         1 2G       0.102287
     36 H9          39.2580    37.1160    17.1170 ha         1 2G       0.196601
     37 H10         33.4880    37.8910    26.1540 h1         1 2G      -0.039416
     38 H11         35.7030    37.7360    19.4670 ha         1 2G       0.170382
     39 H12         35.8370    36.2250    14.6600 ha         1 2G       0.167955
     40 H13         34.6920    35.2300    16.6230 ha         1 2G       0.188913
     41 H14         35.2180    39.8560    20.8360 h4         1 2G       0.097823
     42 H15         34.0540    35.1880    24.4180 h1         1 2G       0.111787
     43 H16         32.5820    34.9190    23.4830 h1         1 2G       0.111787
     44 H17         33.9200    33.7710    23.4230 h1         1 2G       0.111787
     45 H18         33.7900    40.5680    24.9710 hn         1 2G       0.404619
     46 H52         38.1200    37.1730    14.9030 ha         1 2G       0.155138
@<TRIPOS>BOND
     1     1     2 1   
     2     1    10 1   
     3     1    28 1   
     4     1    29 1   
     5     2     6 1   
     6     2    30 1   
     7     2    31 1   
     8     3     4 1   
     9     3     6 1   
    10     3    32 1   
    11     3    33 1   
    12     4    10 1   
    13     4    34 1   
    14     4    35 1   
    15     5     8 ar  
    16     5    13 ar  
    17     5    36 1   
    18     7    18 1   
    19     7    24 2   
    20     7    25 1   
    21     8    19 ar  
    22     8    21 1   
    23     9    23 ar  
    24     9    26 ar  
    25     9    27 1   
    26    10    27 1   
    27    10    37 1   
    28    11    12 1   
    29    11    16 ar  
    30    11    17 ar  
    31    12    18 2   
    32    12    38 1   
    33    13    14 ar  
    34    13    46 1   
    35    14    15 ar  
    36    14    39 1   
    37    15    19 ar  
    38    15    40 1   
    39    16    25 1   
    40    16    26 ar  
    41    17    23 ar  
    42    17    41 1   
    43    18    22 1   
    44    19    22 1   
    45    20    25 1   
    46    20    42 1   
    47    20    43 1   
    48    20    44 1   
    49    27    45 1   
@<TRIPOS>SUBSTRUCTURE
     1 2G         1 TEMP              0 ****  ****    0 ROOT
