@<TRIPOS>MOLECULE
L3G
   52    55     1     0     0
SMALL
resp


@<TRIPOS>ATOM
      1  C1         11.6820    -2.1710     1.3300 c3         1 L3G      -0.266222
      2  N1         12.9760    -2.4300     0.6900 n          1 L3G      -0.088113
      3  C2         14.1860    -2.5030     1.2750 cz         1 L3G       0.607329
      4  N2         14.4360    -2.3450     2.5800 nh         1 L3G      -0.906642
      5  N3         15.1500    -2.7840     0.3900 nh         1 L3G      -0.361126
      6  C3         14.6010    -2.9820    -0.9570 c3         1 L3G      -0.320247
      7  C4         15.1280    -1.9200    -1.9460 ca         1 L3G       0.180284
      8  C5         15.4910    -2.2560    -3.2690 ca         1 L3G      -0.169006
      9  C6         16.0030    -1.2810    -4.1320 ca         1 L3G      -0.182292
     10  C7         16.0560     0.0660    -3.7340 ca         1 L3G      -0.105360
     11  C8         15.6100     0.4650    -2.4550 cp         1 L3G       0.010345
     12  C9         15.4770     1.9020    -2.1040 cp         1 L3G       0.034503
     13  C10        15.1740     2.8580    -3.1040 ca         1 L3G      -0.150296
     14  C11        14.9080     4.2030    -2.7790 ca         1 L3G      -0.191380
     15  C12        14.9470     4.6240    -1.4410 ca         1 L3G      -0.027501
     16  C13        15.2840     3.7050    -0.4340 ca         1 L3G      -0.054390
     17  CL1        15.3410     4.2340     1.2070 cl         1 L3G      -0.095899
     18  C14        15.5530     2.3610    -0.7660 ca         1 L3G      -0.035430
     19  C15        15.2060    -0.5550    -1.5580 ca         1 L3G      -0.165316
     20  CG1        14.7890    -4.4800    -1.3900 c3         1 L3G       0.071007
     21  CG2        16.2630    -4.8720    -1.6060 c3         1 L3G       0.001856
     22  CG3        16.3890    -6.2770    -2.2010 c3         1 L3G      -0.086269
     23  CG4        15.8130    -7.3000    -1.2240 c3         1 L3G      -0.082977
     24  CG5        14.3460    -6.9750    -0.9190 c3         1 L3G      -0.086269
     25  CG6        14.1670    -5.5280    -0.4190 c3         1 L3G       0.001856
     26  C16        13.1180    -2.6880    -0.7030 c          1 L3G       0.559510
     27  O1         12.1860    -2.7190    -1.5140 o          1 L3G      -0.442298
     28  H1         11.3560    -1.1580     1.0940 h1         1 L3G       0.149572
     29  H2         10.9230    -2.8630     0.9660 h1         1 L3G       0.149572
     30  H3         11.7460    -2.2850     2.4100 h1         1 L3G       0.149572
     31  H4         13.7420    -2.0410     3.2610 hn         1 L3G       0.465617
     32  H5         16.1420    -2.8460     0.6120 hn         1 L3G       0.384926
     33  H6         15.4230    -3.2620    -3.6540 ha         1 L3G       0.163752
     34  H7         16.3340    -1.5760    -5.1140 ha         1 L3G       0.178051
     35  H8         16.4150     0.7930    -4.4470 ha         1 L3G       0.154431
     36  H9         15.0830     2.5510    -4.1350 ha         1 L3G       0.145747
     37  H10        14.6440     4.9090    -3.5550 ha         1 L3G       0.173095
     38  H11        14.7210     5.6480    -1.1820 ha         1 L3G       0.141341
     39  H12        15.7990     1.6740     0.0260 ha         1 L3G       0.104129
     40  H13        14.8760    -0.2710    -0.5720 ha         1 L3G       0.083066
     41  HG1        14.2660    -4.6100    -2.3390 hc         1 L3G       0.092456
     42  HG2        16.7770    -4.1760    -2.2560 hc         1 L3G       0.011584
     43  HG3        16.7870    -4.8370    -0.6500 hc         1 L3G       0.011584
     44  HG4        17.4340    -6.1300    -2.4010 hc         1 L3G       0.052939
     45  HG5        15.8710    -6.3310    -3.1600 hc         1 L3G       0.052939
     46  HG6        15.9010    -8.3040    -1.6300 hc         1 L3G       0.045655
     47  HG7        16.4020    -7.2920    -0.3050 hc         1 L3G       0.045655
     48  HG8        13.7480    -7.1280    -1.8190 hc         1 L3G       0.052939
     49  HG9        13.9650    -7.6730    -0.1730 hc         1 L3G       0.052939
     50 HG10        14.6310    -5.4380     0.5640 hc         1 L3G       0.011584
     51 HG11        13.1010    -5.3580    -0.2720 hc         1 L3G       0.011584
     52  H14        15.3990    -2.4100     2.9170 hn         1 L3G       0.465617
@<TRIPOS>BOND
     1     1     2 1   
     2     1    28 1   
     3     1    29 1   
     4     1    30 1   
     5     2     3 2   
     6     2    26 1   
     7     3     4 1   
     8     3     5 1   
     9     4    31 1   
    10     4    52 1   
    11     5     6 1   
    12     5    32 1   
    13     6     7 1   
    14     6    20 1   
    15     6    26 1   
    16     7     8 ar  
    17     7    19 ar  
    18     8     9 ar  
    19     8    33 1   
    20     9    10 ar  
    21     9    34 1   
    22    10    11 ar  
    23    10    35 1   
    24    11    12 1   
    25    11    19 ar  
    26    12    13 ar  
    27    12    18 ar  
    28    13    14 ar  
    29    13    36 1   
    30    14    15 ar  
    31    14    37 1   
    32    15    16 ar  
    33    15    38 1   
    34    16    17 1   
    35    16    18 ar  
    36    18    39 1   
    37    19    40 1   
    38    20    21 1   
    39    20    25 1   
    40    20    41 1   
    41    21    22 1   
    42    21    42 1   
    43    21    43 1   
    44    22    23 1   
    45    22    44 1   
    46    22    45 1   
    47    23    24 1   
    48    23    46 1   
    49    23    47 1   
    50    24    25 1   
    51    24    48 1   
    52    24    49 1   
    53    25    50 1   
    54    25    51 1   
    55    26    27 2   
@<TRIPOS>SUBSTRUCTURE
     1 L3G         1 TEMP              0 ****  ****    0 ROOT
