@<TRIPOS>MOLECULE
L24
   38    39     1     0     0
SMALL
resp


@<TRIPOS>ATOM
      1 C1          24.0160    12.2540    30.2760 c3         1 L24      -0.335468
      2 C2          23.2910    10.9310    30.5360 c3         1 L24       0.408242
      3 O1          22.1420    11.2130    31.3310 os         1 L24      -0.453684
      4 C3          21.3320    10.1740    31.7570 ca         1 L24       0.903699
      5 N1          21.6860     8.9140    31.3840 nb         1 L24      -0.809609
      6 C4          20.8980     7.8950    31.7570 ca         1 L24       0.777982
      7 C5          19.7600     8.0590    32.5320 ca         1 L24      -0.849612
      8 C6          19.4060     9.3390    32.9150 ca         1 L24       0.837256
      9 N2          18.2480     9.4340    33.6770 nh         1 L24      -1.032208
     10 C7          20.1940    10.4360    32.5280 ca         1 L24      -0.731519
     11 C8          19.8720    11.8130    32.8830 cg         1 L24       0.524096
     12 N3          19.6250    12.9100    33.1610 n1         1 L24      -0.538864
     13 N4          21.4000     6.6890    31.3170 n          1 L24      -0.615733
     14 C9          20.7830     5.5180    31.1300 c          1 L24       0.855081
     15 O2          19.5710     5.3640    31.2680 o          1 L24      -0.628290
     16 C10         21.6350     4.3090    30.7130 c3         1 L24      -0.487334
     17 C11         23.1280     4.5970    30.5480 ca         1 L24       0.273028
     18 C12         23.5810     5.4160    29.5070 ca         1 L24      -0.243503
     19 C13         24.9400     5.7010    29.3740 ca         1 L24      -0.126510
     20 C14         25.8540     5.1670    30.2820 ca         1 L24      -0.148754
     21 C15         25.4090     4.3460    31.3180 ca         1 L24      -0.126510
     22 C16         24.0500     4.0610    31.4520 ca         1 L24      -0.243503
     23 H1          24.9070    12.0980    29.6690 hc         1 L24       0.090477
     24 H2          23.3680    12.9520    29.7460 hc         1 L24       0.090477
     25 H3          24.3210    12.7250    31.2110 hc         1 L24       0.090477
     26 H4          22.9960    10.4700    29.5910 h1         1 L24      -0.015881
     27 H5          23.9580    10.2380    31.0530 h1         1 L24      -0.015881
     28 H6          19.1610     7.2150    32.8310 ha         1 L24       0.313747
     29 H7          17.7800     8.5900    33.9930 hn         1 L24       0.451036
     30 H8          17.8750    10.3450    33.9350 hn         1 L24       0.451036
     31 H9          22.3840     6.7400    31.1200 hn         1 L24       0.292271
     32 H10         21.4790     3.5190    31.4480 hc         1 L24       0.147296
     33 H11         21.2430     3.9300    29.7730 hc         1 L24       0.147296
     34 H12         22.8770     5.8380    28.8040 ha         1 L24       0.155900
     35 H13         25.2860     6.3340    28.5690 ha         1 L24       0.146594
     36 H14         26.9070     5.3920    30.1820 ha         1 L24       0.144377
     37 H15         26.1190     3.9320    32.0210 ha         1 L24       0.146594
     38 H16         23.7190     3.4240    32.2600 ha         1 L24       0.155900
@<TRIPOS>BOND
     1     1     2 1   
     2     1    23 1   
     3     1    24 1   
     4     1    25 1   
     5     2     3 1   
     6     2    26 1   
     7     2    27 1   
     8     3     4 1   
     9     4     5 ar  
    10     4    10 ar  
    11     5     6 ar  
    12     6     7 ar  
    13     6    13 1   
    14     7     8 ar  
    15     7    28 1   
    16     8     9 1   
    17     8    10 ar  
    18     9    29 1   
    19     9    30 1   
    20    10    11 1   
    21    11    12 3   
    22    13    14 1   
    23    13    31 1   
    24    14    15 2   
    25    14    16 1   
    26    16    17 1   
    27    16    32 1   
    28    16    33 1   
    29    17    18 ar  
    30    17    22 ar  
    31    18    19 ar  
    32    18    34 1   
    33    19    20 ar  
    34    19    35 1   
    35    20    21 ar  
    36    20    36 1   
    37    21    22 ar  
    38    21    37 1   
    39    22    38 1   
@<TRIPOS>SUBSTRUCTURE
     1 L24         1 TEMP              0 ****  ****    0 ROOT
