@<TRIPOS>MOLECULE
L27
   38    39     1     0     0
SMALL
resp


@<TRIPOS>ATOM
      1  C1         24.0450    12.2310    30.2640 c3         1 L27      -0.336908
      2  C2         23.3140    10.9120    30.5250 c3         1 L27       0.409339
      3  O1         22.1660    11.2000    31.3190 os         1 L27      -0.455523
      4  C3         21.3510    10.1660    31.7460 ca         1 L27       0.896031
      5  N1         21.6960     8.9020    31.3720 nb         1 L27      -0.804039
      6  C4         20.9000     7.8900    31.7480 ca         1 L27       0.768869
      7  C5         19.7670     8.0630    32.5270 ca         1 L27      -0.832187
      8  C6         19.4230     9.3460    32.9110 ca         1 L27       0.791640
      9  N2         18.2680     9.4490    33.6770 nh         1 L27      -0.980518
     10  C7         20.2170    10.4360    32.5200 ca         1 L27      -0.702905
     11  C8         19.9030    11.8150    32.8750 cg         1 L27       0.513987
     12  N3         19.6630    12.9130    33.1530 n1         1 L27      -0.532692
     13  N4         21.3890     6.6800    31.3020 n          1 L27      -0.606025
     14  C9         20.7530     5.5180    31.1150 c          1 L27       0.834357
     15  O2         19.5390     5.3840    31.2540 o          1 L27      -0.623341
     16  C10        21.5780     4.2940    30.6930 c3         1 L27      -0.444617
     17  C11        23.0900     4.5080    30.6440 ca         1 L27       0.275583
     18  C12        23.6660     5.3060    29.6460 ca         1 L27      -0.295899
     19  C13        25.0460     5.5100    29.6200 ca         1 L27      -0.026716
     20  C14        25.8560     4.9160    30.5870 ca         1 L27      -0.038475
     21 CL14        27.5600     5.1730    30.5670 cl         1 L27      -0.106795
     22  C15        25.2880     4.1160    31.5780 ca         1 L27      -0.026716
     23  C16        23.9090     3.9120    31.6080 ca         1 L27      -0.295899
     24  H1         24.9360    12.0710    29.6580 hc         1 L27       0.091688
     25  H2         23.4010    12.9310    29.7320 hc         1 L27       0.091688
     26  H3         24.3510    12.7020    31.1980 hc         1 L27       0.091688
     27  H4         23.0190    10.4500    29.5800 h1         1 L27      -0.016064
     28  H5         23.9780    10.2170    31.0440 h1         1 L27      -0.016064
     29  H6         19.1620     7.2240    32.8290 ha         1 L27       0.314502
     30  H7         17.7920     8.6080    33.9890 hn         1 L27       0.434538
     31  H8         17.8990    10.3610    33.9330 hn         1 L27       0.434538
     32  H9         22.3730     6.7240    31.1100 hn         1 L27       0.287076
     33  H10        21.3380     3.4830    31.3790 hc         1 L27       0.141448
     34  H11        21.2280     3.9760    29.7150 hc         1 L27       0.141448
     35  H12        23.0430     5.7720    28.8930 ha         1 L27       0.174915
     36  H13        25.4960     6.1260    28.8540 ha         1 L27       0.136566
     37  H15        25.9240     3.6580    32.3220 ha         1 L27       0.136566
     38  H16        23.4810     3.2860    32.3790 ha         1 L27       0.174915
@<TRIPOS>BOND
     1     1     2 1   
     2     1    24 1   
     3     1    25 1   
     4     1    26 1   
     5     2     3 1   
     6     2    27 1   
     7     2    28 1   
     8     3     4 1   
     9     4     5 ar  
    10     4    10 ar  
    11     5     6 ar  
    12     6     7 ar  
    13     6    13 1   
    14     7     8 ar  
    15     7    29 1   
    16     8     9 1   
    17     8    10 ar  
    18     9    30 1   
    19     9    31 1   
    20    10    11 1   
    21    11    12 3   
    22    13    14 1   
    23    13    32 1   
    24    14    15 2   
    25    14    16 1   
    26    16    17 1   
    27    16    33 1   
    28    16    34 1   
    29    17    18 ar  
    30    17    23 ar  
    31    18    19 ar  
    32    18    35 1   
    33    19    20 ar  
    34    19    36 1   
    35    20    21 1   
    36    20    22 ar  
    37    22    23 ar  
    38    22    37 1   
    39    23    38 1   
@<TRIPOS>SUBSTRUCTURE
     1 L27         1 TEMP              0 ****  ****    0 ROOT
