@<TRIPOS>MOLECULE
L75
   42    44     1     0     0
SMALL
resp


@<TRIPOS>ATOM
      1 O2          41.4190    17.6000    11.9580 o          1 L75      -0.854918
      2 C1          40.5360    17.4940    12.8370 c          1 L75       0.914623
      3 O1          39.4590    18.1300    12.8670 o          1 L75      -0.854918
      4 C2          40.7980    16.5070    13.9770 c3         1 L75      -0.005256
      5 O3          42.0650    15.8700    13.8290 os         1 L75      -0.304268
      6 C3          42.3680    14.9600    14.7840 cc         1 L75       0.209388
      7 C6          41.8950    13.6150    14.7770 cc         1 L75      -0.130283
      8 BR1         40.7640    12.9500    13.3930 br         1 L75      -0.068941
      9 C5          42.3350    12.8410    15.8190 cd         1 L75       0.024600
     10 C8          42.0580    11.4470    16.1560 ca         1 L75       0.051818
     11 C9          43.0850    10.6030    16.6320 ca         1 L75      -0.109771
     12 C10         42.8170     9.2590    16.9590 ca         1 L75      -0.198430
     13 C11         41.5160     8.7450    16.8120 ca         1 L75      -0.313300
     14 C12         40.4830     9.5760    16.3370 ca         1 L75       0.420123
     15 N1          39.1990     9.0230    16.2100 nh         1 L75      -0.985657
     16 CI1         38.9950     7.6290    15.8730 c3         1 L75       0.738699
     17 CI2         39.1360     7.3710    14.3720 c3         1 L75      -0.200091
     18 CI3         38.2670     6.1410    14.1220 c3         1 L75      -0.003114
     19 CI4         37.0660     6.3370    15.0500 c3         1 L75      -0.003114
     20 CI5         37.5930     7.1310    16.2550 c3         1 L75      -0.200091
     21 C13         40.7560    10.9190    16.0120 ca         1 L75      -0.270549
     22 S1          43.3860    13.7730    16.8530 ss         1 L75      -0.165211
     23 C4          43.2020    15.2030    15.8530 cd         1 L75      -0.046092
     24 C7          43.9480    16.4110    16.2800 c          1 L75       0.781115
     25 O5          44.6540    16.3480    17.3100 o          1 L75      -0.750674
     26 O4          43.8500    17.4620    15.6070 o          1 L75      -0.750674
     27 H1          39.9830    15.7840    14.0370 h1         1 L75       0.034872
     28 H2          40.7970    17.0510    14.9220 h1         1 L75       0.034872
     29 H3          44.0910    10.9810    16.7450 ha         1 L75       0.116545
     30 H4          43.6120     8.6240    17.3210 ha         1 L75       0.141755
     31 H5          41.3230     7.7120    17.0660 ha         1 L75       0.154355
     32 HN2         38.4090     9.5440    16.5630 hn         1 L75       0.370066
     33 HI7         39.7460     7.0530    16.4140 h1         1 L75      -0.116355
     34 HI8         38.8370     8.2280    13.7680 hc         1 L75       0.047282
     35 HI9         40.1740     7.1430    14.1310 hc         1 L75       0.047282
     36 HI0         37.9340     6.1300    13.0840 hc         1 L75      -0.004301
     37 HI1         38.7950     5.2070    14.3100 hc         1 L75      -0.004301
     38 HI2         36.3000     6.9180    14.5380 hc         1 L75      -0.004301
     39 HI3         36.6130     5.3900    15.3420 hc         1 L75      -0.004301
     40 HI4         37.6410     6.5070    17.1470 hc         1 L75       0.047282
     41 HI5         36.9280     7.9640    16.4820 hc         1 L75       0.047282
     42 H6          39.9760    11.5730    15.6520 ha         1 L75       0.166955
@<TRIPOS>BOND
     1     1     2 1   
     2     2     3 1   
     3     2     4 1   
     4     4     5 1   
     5     4    27 1   
     6     4    28 1   
     7     5     6 1   
     8     6     7 1   
     9     6    23 2   
    10     7     8 1   
    11     7     9 2   
    12     9    10 1   
    13     9    22 1   
    14    10    11 ar  
    15    10    21 ar  
    16    11    12 ar  
    17    11    29 1   
    18    12    13 ar  
    19    12    30 1   
    20    13    14 ar  
    21    13    31 1   
    22    14    15 1   
    23    14    21 ar  
    24    15    16 1   
    25    15    32 1   
    26    16    17 1   
    27    16    20 1   
    28    16    33 1   
    29    17    18 1   
    30    17    34 1   
    31    17    35 1   
    32    18    19 1   
    33    18    36 1   
    34    18    37 1   
    35    19    20 1   
    36    19    38 1   
    37    19    39 1   
    38    20    40 1   
    39    20    41 1   
    40    21    42 1   
    41    22    23 1   
    42    23    24 1   
    43    24    25 1   
    44    24    26 1   
@<TRIPOS>SUBSTRUCTURE
     1 L75         1 TEMP              0 ****  ****    0 ROOT
