@<TRIPOS>MOLECULE
2Y
   45    47     1     0     0
SMALL
resp


@<TRIPOS>ATOM
      1 C5          38.2630    36.7140    17.0130 ca         1 2Y      -0.505909
      2 C6          34.5450    34.9770    21.1830 c          1 2Y       0.666685
      3 C7          37.5970    36.1890    18.1370 ca         1 2Y       0.372767
      4 C8          34.0440    38.9760    23.7380 ca         1 2Y       1.054926
      5 CX4         33.1560    38.9290    26.1330 c3         1 2Y       0.012827
      6 C10         34.8030    37.8110    21.4410 ca         1 2Y      -0.468808
      7 C11         35.2540    37.1250    20.2340 cc         1 2Y      -0.188983
      8 C12         37.6230    36.7430    15.7590 ca         1 2Y       0.455792
      9 C13         36.3270    36.2160    15.6230 ca         1 2Y      -0.398100
     10 C14         35.6720    35.6680    16.7400 ca         1 2Y      -0.146744
     11 C15         34.3070    37.0370    22.5110 ca         1 2Y       0.588781
     12 C16         34.8520    39.2090    21.6170 ca         1 2Y       0.516942
     13 C17         35.1650    35.7820    20.1250 cd         1 2Y       0.080378
     14 C18         36.2930    35.6640    18.0030 ca         1 2Y       0.150785
     15 C19         33.6690    34.8320    23.4620 c3         1 2Y      -0.199201
     16 F1          38.1960    36.1970    19.3280 f          1 2Y      -0.181730
     17 O2          35.6500    35.0620    19.0540 os         1 2Y      -0.319616
     18 N1          34.4790    39.7920    22.7770 nb         1 2Y      -0.883653
     19 O3          34.3290    33.7760    21.0230 o          1 2Y      -0.565626
     20 N2          34.2120    35.6180    22.3420 n          1 2Y      -0.225515
     21 N3          33.9310    37.6500    23.6560 nb         1 2Y      -0.721696
     22 N4          33.6720    39.5650    24.9270 nh         1 2Y      -0.652363
     23 CX1         33.6750    39.6520    27.3410 c3         1 2Y       0.664449
     24 CX2         33.1450    38.9980    28.5820 c3         1 2Y      -0.467060
     25 OX1         35.0840    39.6020    27.3500 oh         1 2Y      -0.738842
     26 CX3         33.2260    41.0830    27.3000 c3         1 2Y      -0.467060
     27 H9          39.2580    37.1160    17.1170 ha         1 2Y       0.246148
     28 HX9         33.4880    37.8910    26.1540 h1         1 2Y       0.050253
     29 H11         35.7030    37.7360    19.4670 ha         1 2Y       0.159518
     30 H12         35.8370    36.2250    14.6600 ha         1 2Y       0.216310
     31 H13         34.6920    35.2300    16.6230 ha         1 2Y       0.196080
     32 H14         35.2180    39.8560    20.8360 h4         1 2Y       0.084203
     33 H15         34.0540    35.1880    24.4180 h1         1 2Y       0.112467
     34 H16         32.5820    34.9190    23.4830 h1         1 2Y       0.112467
     35 H17         33.9200    33.7710    23.4230 h1         1 2Y       0.112467
     36 H18         33.7900    40.5680    24.9710 hn         1 2Y       0.363117
     37 HX1         32.0670    38.9680    26.1280 h1         1 2Y       0.050253
     38 HX2         35.4160    40.0650    28.1230 ho         1 2Y       0.433783
     39 HX3         33.5220    39.5230    29.4600 hc         1 2Y       0.106939
     40 HX4         32.0550    39.0360    28.5770 hc         1 2Y       0.106939
     41 HX5         33.4710    37.9580    28.6130 hc         1 2Y       0.106939
     42 HX6         33.6030    41.6080    28.1770 hc         1 2Y       0.106939
     43 HX7         33.6120    41.5590    26.3980 hc         1 2Y       0.106939
     44 HX8         32.1370    41.1220    27.2940 hc         1 2Y       0.106939
     45 F2          38.2360    37.2740    14.7020 f          1 2Y      -0.212128
@<TRIPOS>BOND
     1     1     3 ar  
     2     1     8 ar  
     3     1    27 1   
     4     2    13 1   
     5     2    19 2   
     6     2    20 1   
     7     3    14 ar  
     8     3    16 1   
     9     4    18 ar  
    10     4    21 ar  
    11     4    22 1   
    12     5    22 1   
    13     5    23 1   
    14     5    28 1   
    15     5    37 1   
    16     6     7 1   
    17     6    11 ar  
    18     6    12 ar  
    19     7    13 2   
    20     7    29 1   
    21     8     9 ar  
    22     8    45 1   
    23     9    10 ar  
    24     9    30 1   
    25    10    14 ar  
    26    10    31 1   
    27    11    20 1   
    28    11    21 ar  
    29    12    18 ar  
    30    12    32 1   
    31    13    17 1   
    32    14    17 1   
    33    15    20 1   
    34    15    33 1   
    35    15    34 1   
    36    15    35 1   
    37    22    36 1   
    38    23    24 1   
    39    23    25 1   
    40    23    26 1   
    41    24    39 1   
    42    24    40 1   
    43    24    41 1   
    44    25    38 1   
    45    26    42 1   
    46    26    43 1   
    47    26    44 1   
@<TRIPOS>SUBSTRUCTURE
     1 2Y         1 TEMP              0 ****  ****    0 ROOT
