@<TRIPOS>MOLECULE
L37
   53    54     1     0     0
SMALL
resp


@<TRIPOS>ATOM
      1  C1        24.0680    12.3970    30.2300 c3         1 L37      -0.351186
      2  C2        23.3160    11.0780    30.4230 c3         1 L37       0.407448
      3  O1        22.2070    11.3320    31.2810 os         1 L37      -0.445456
      4  C3        21.4080    10.2820    31.6980 ca         1 L37       0.842609
      5  N1        21.7480     9.0320    31.2790 nb         1 L37      -0.780469
      6  C4        20.9740     8.0020    31.6540 ca         1 L37       0.750847
      7  C5        19.8660     8.1460    32.4780 ca         1 L37      -0.801370
      8  C6        19.5200     9.4180    32.8980 ca         1 L37       0.726652
      9  N2        18.3830     9.4990    33.6930 nh         1 L37      -0.942917
     10  C7        20.2910    10.5240    32.5050 ca         1 L37      -0.641453
     11  C8        19.9670    11.8930    32.8850 cg         1 L37       0.498006
     12  N3        19.7170    12.9840    33.1810 n1         1 L37      -0.533649
     13  N4        21.4330     6.8190    31.1100 n          1 L37      -0.521035
     14  C9        20.8530     5.6190    31.0280 c          1 L37       0.691086
     15  O2        19.7270     5.3570    31.4480 o          1 L37      -0.606388
     16  C10       21.6390     4.5480    30.2800 c3         1 L37      -0.104324
     17  C11       23.0290     4.2860    30.8550 ca         1 L37      -0.052837
     18  C12       24.1070     5.1200    30.5270 ca         1 L37       0.145160
     19  O12       23.8490     6.2030    29.7040 os         1 L37      -0.164164
     20 C121       24.8540     7.1990    29.5180 c3         1 L37      -0.248298
     21  C13       25.3720     4.8230    31.0460 ca         1 L37      -0.252549
     22  C14       25.5650     3.7380    31.9140 ca         1 L37       0.055842
     23  C15       24.4770     2.9180    32.2550 ca         1 L37       0.185654
     24  C16       23.2160     3.2000    31.7130 ca         1 L37      -0.258598
     25  O15       24.7080     1.8720    33.1350 os         1 L37      -0.225294
     26 C151       23.7950     0.7760    33.1650 c3         1 L37      -0.163447
     27   NN       26.8100     3.4130    32.4990 n          1 L37      -0.463813
     28   CN       28.0300     3.9580    32.3630 c          1 L37       0.817497
     29   ON       28.3090     4.8810    31.6040 o          1 L37      -0.624869
     30  CNN       29.1270     3.3860    33.2440 c3         1 L37      -0.486297
     31  H1        24.9130    12.2710    29.5530 hc         1 L37       0.094210
     32  H2        23.4120    13.1590    29.8080 hc         1 L37       0.094210
     33  H3        24.4480    12.7730    31.1800 hc         1 L37       0.094210
     34  H4        22.9680    10.6940    29.4610 h1         1 L37      -0.012395
     35  H5        23.9860    10.3340    30.8590 h1         1 L37      -0.012395
     36  H6        19.2720     7.2990    32.7770 ha         1 L37       0.309890
     37  H7        17.9980    10.4050    33.9510 hn         1 L37       0.421460
     38  H8        17.9020     8.6510    33.9780 hn         1 L37       0.421460
     39  H9        22.3410     6.9230    30.6840 hn         1 L37       0.242777
     40  H10       21.0720     3.6220    30.2390 hc         1 L37       0.055782
     41  H11       21.7300     4.9030    29.2590 hc         1 L37       0.055782
     42 H121       25.1770     7.6320    30.4670 h1         1 L37       0.128549
     43 H122       25.7220     6.8020    28.9900 h1         1 L37       0.128549
     44 H123       24.4470     8.0100    28.9130 h1         1 L37       0.128549
     45  H13       26.2050     5.4490    30.7820 ha         1 L37       0.224190
     46  H16       22.3710     2.5750    31.9550 ha         1 L37       0.181532
     47 H151       24.1830     0.0080    33.8350 h1         1 L37       0.109927
     48 H152       22.8120     1.0580    33.5380 h1         1 L37       0.109927
     49 H153       23.6830     0.3200    32.1820 h1         1 L37       0.109927
     50 HN14       26.7330     2.6380    33.1390 hn         1 L37       0.253010
     51 HN41       28.7670     2.6000    33.9070 hc         1 L37       0.136153
     52 HN42       29.9210     2.9780    32.6210 hc         1 L37       0.136153
     53 HN43       29.5480     4.1840    33.8560 hc         1 L37       0.136153
@<TRIPOS>BOND
     1     1     2 1   
     2     1    31 1   
     3     1    32 1   
     4     1    33 1   
     5     2     3 1   
     6     2    34 1   
     7     2    35 1   
     8     3     4 1   
     9     4     5 ar  
    10     4    10 ar  
    11     5     6 ar  
    12     6     7 ar  
    13     6    13 1   
    14     7     8 ar  
    15     7    36 1   
    16     8     9 1   
    17     8    10 ar  
    18     9    37 1   
    19     9    38 1   
    20    10    11 1   
    21    11    12 3   
    22    13    14 1   
    23    13    39 1   
    24    14    15 2   
    25    14    16 1   
    26    16    17 1   
    27    16    40 1   
    28    16    41 1   
    29    17    18 ar  
    30    17    24 ar  
    31    18    19 1   
    32    18    21 ar  
    33    19    20 1   
    34    20    42 1   
    35    20    43 1   
    36    20    44 1   
    37    21    22 ar  
    38    21    45 1   
    39    22    23 ar  
    40    22    27 1   
    41    23    24 ar  
    42    23    25 1   
    43    24    46 1   
    44    25    26 1   
    45    26    47 1   
    46    26    48 1   
    47    26    49 1   
    48    27    28 1   
    49    27    50 1   
    50    28    29 2   
    51    28    30 1   
    52    30    51 1   
    53    30    52 1   
    54    30    53 1   
@<TRIPOS>SUBSTRUCTURE
     1 L37         1 TEMP              0 ****  ****    0 ROOT
