@<TRIPOS>MOLECULE
L56
   47    49     1     0     0
SMALL
resp


@<TRIPOS>ATOM
      1 O1           3.8860   -49.6910     7.1570 o          1 L56      -0.787608
      2 C1           3.1150   -48.8650     6.6080 c          1 L56       0.886176
      3 O2           3.5630   -47.7320     6.3170 o          1 L56      -0.787608
      4 C2           1.6860   -49.2230     6.3250 cc         1 L56      -0.047182
      5 C3          -0.1970   -50.5150     6.2700 ca         1 L56       0.103228
      6 C4          -1.1990   -51.5170     6.3680 ca         1 L56      -0.252059
      7 C5          -2.5250   -51.2520     5.9890 ca         1 L56      -0.152878
      8 C6          -2.8500   -49.9690     5.4930 ca         1 L56      -0.241822
      9 C7          -1.8590   -48.9600     5.3780 ca         1 L56      -0.182619
     10 C8          -0.5120   -49.2090     5.7720 ca         1 L56       0.100788
     11 C9           0.6850   -48.4220     5.8070 cd         1 L56      -0.258320
     12 C10          0.7940   -46.9840     5.3690 c3         1 L56       0.144394
     13 C11          0.7870   -45.9900     6.5470 c3         1 L56      -0.063453
     14 C12         -0.5620   -45.9180     7.2690 c3         1 L56      -0.210545
     15 O3          -1.5110   -45.3390     6.3840 os         1 L56      -0.333845
     16 C13         -2.7730   -45.0770     6.8670 ca         1 L56       0.516429
     17 C16         -3.2520   -45.5120     8.1250 ca         1 L56      -0.573186
     18 C15         -4.5560   -45.1860     8.5490 ca         1 L56       0.376068
     19 CC1         -5.0410   -45.6890     9.8960 c3         1 L56      -0.239245
     20 C14         -5.3920   -44.4080     7.7180 ca         1 L56      -0.278642
     21 CL1         -6.9810   -43.9830     8.2400 cl         1 L56      -0.134920
     22 C17         -4.9230   -43.9760     6.4560 ca         1 L56       0.376068
     23 CH1         -5.7950   -43.1310     5.5480 c3         1 L56      -0.239245
     24 C18         -3.6250   -44.3210     6.0410 ca         1 L56      -0.573186
     25 H1          -0.9460   -52.4910     6.7460 ha         1 L56       0.142462
     26 H2          -3.2980   -52.0170     6.0790 ha         1 L56       0.121374
     27 H3          -3.8730   -49.7550     5.2030 ha         1 L56       0.130422
     28 H4          -2.1320   -47.9800     4.9970 ha         1 L56       0.160919
     29 H5          -0.0130   -46.7420     4.6760 hc         1 L56      -0.007024
     30 H6           1.7140   -46.8490     4.7960 hc         1 L56      -0.007024
     31 H7           1.0430   -44.9980     6.1730 hc         1 L56       0.075167
     32 H8           1.5690   -46.2500     7.2610 hc         1 L56       0.075167
     33 H9          -0.4590   -45.3080     8.1660 h1         1 L56       0.139407
     34 H10         -0.8790   -46.9150     7.5780 h1         1 L56       0.139407
     35 H11         -2.6290   -46.0980     8.7790 ha         1 L56       0.210874
     36 HC1         -5.5450   -44.8980    10.4490 hc         1 L56       0.070645
     37 HC2         -5.7400   -46.5120     9.7540 hc         1 L56       0.070645
     38 HC3         -4.2150   -46.0490    10.5100 hc         1 L56       0.070645
     39 HH1         -5.2720   -42.8540     4.6320 hc         1 L56       0.070645
     40 HH2         -6.7000   -43.6720     5.2710 hc         1 L56       0.070645
     41 HH3         -6.0850   -42.2110     6.0560 hc         1 L56       0.070645
     42 H19         -3.2620   -43.9920     5.0820 ha         1 L56       0.210874
     43 CS1          1.8850   -51.6780     7.1110 c3         1 L56      -0.210327
     44 HS1          1.2410   -52.5560     7.2050 h1         1 L56       0.093225
     45 HS2          2.7070   -51.9460     6.4350 h1         1 L56       0.093225
     46 HS3          2.2850   -51.4580     8.1090 h1         1 L56       0.093225
     47 N1           1.1680   -50.5140     6.5890 na         1 L56      -0.032031
@<TRIPOS>BOND
     1     1     2 1   
     2     2     3 1   
     3     2     4 1   
     4     4    11 2   
     5     4    47 1   
     6     5     6 ar  
     7     5    10 ar  
     8     5    47 1   
     9     6     7 ar  
    10     6    25 1   
    11     7     8 ar  
    12     7    26 1   
    13     8     9 ar  
    14     8    27 1   
    15     9    10 ar  
    16     9    28 1   
    17    10    11 1   
    18    11    12 1   
    19    12    13 1   
    20    12    29 1   
    21    12    30 1   
    22    13    14 1   
    23    13    31 1   
    24    13    32 1   
    25    14    15 1   
    26    14    33 1   
    27    14    34 1   
    28    15    16 1   
    29    16    17 ar  
    30    16    24 ar  
    31    17    18 ar  
    32    17    35 1   
    33    18    19 1   
    34    18    20 ar  
    35    19    36 1   
    36    19    37 1   
    37    19    38 1   
    38    20    21 1   
    39    20    22 ar  
    40    22    23 1   
    41    22    24 ar  
    42    23    39 1   
    43    23    40 1   
    44    23    41 1   
    45    24    42 1   
    46    43    44 1   
    47    43    45 1   
    48    43    46 1   
    49    43    47 1   
@<TRIPOS>SUBSTRUCTURE
     1 L56         1 TEMP              0 ****  ****    0 ROOT
