@<TRIPOS>MOLECULE
2I
   48    51     1     0     0
SMALL
resp


@<TRIPOS>ATOM
      1 C1          31.6240    38.9530    26.1540 c3         1 2I      -0.330112
      2 C2          31.0950    38.3550    27.4680 c3         1 2I       0.265909
      3 C3          33.0540    38.9790    28.6540 c3         1 2I       0.265909
      4 C4          33.6810    39.6140    27.4030 c3         1 2I      -0.330112
      5 C5          38.3660    36.7080    16.8210 ca         1 2I      -0.312568
      6 O1          31.6350    39.0630    28.5780 os         1 2I      -0.462000
      7 C6          34.5450    34.9770    21.1830 c          1 2I       0.614434
      8 C7          37.7000    36.1820    17.9450 ca         1 2I       0.330913
      9 C8          34.0440    38.9760    23.7380 ca         1 2I       1.166307
     10 C9          33.1560    38.9290    26.1330 c3         1 2I       0.602153
     11 C10         34.8030    37.8110    21.4410 ca         1 2I      -0.428337
     12 C11         35.2540    37.1250    20.2340 cc         1 2I      -0.146366
     13 C12         37.7260    36.7360    15.5670 ca         1 2I      -0.094331
     14 C13         36.4300    36.2100    15.4300 ca         1 2I      -0.212453
     15 C14         35.7750    35.6620    16.5470 ca         1 2I      -0.184741
     16 C15         34.3070    37.0370    22.5110 ca         1 2I       0.521035
     17 C16         34.8520    39.2090    21.6170 ca         1 2I       0.463115
     18 C17         35.1650    35.7820    20.1250 cd         1 2I      -0.071053
     19 C18         36.3960    35.6570    17.8100 ca         1 2I       0.028762
     20 C19         33.6690    34.8320    23.4620 c3         1 2I      -0.246089
     21 F1          38.2990    36.1900    19.1360 f          1 2I      -0.212694
     22 C20         35.6920    34.9980    18.9600 c3         1 2I      -0.233558
     23 N1          34.4790    39.7920    22.7770 nb         1 2I      -0.852693
     24 O3          34.3290    33.7760    21.0230 o          1 2I      -0.578452
     25 N2          34.2120    35.6180    22.3420 n          1 2I      -0.144286
     26 N3          33.9310    37.6500    23.6560 nb         1 2I      -0.720491
     27 N4          33.6720    39.5650    24.9270 nh         1 2I      -1.000541
     28 H1          31.2200    38.4000    25.3050 hc         1 2I       0.100710
     29 H2          31.2770    39.9810    26.0540 hc         1 2I       0.100710
     30 H3          30.0100    38.4340    27.5070 h1         1 2I       0.003790
     31 H4          31.3430    37.2950    27.5440 h1         1 2I       0.003790
     32 H5          33.3650    37.9380    28.7610 h1         1 2I       0.003790
     33 H6          33.3890    39.5050    29.5480 h1         1 2I       0.003790
     34 H7          33.4270    40.6740    27.3920 hc         1 2I       0.100710
     35 H8          34.7680    39.5450    27.4510 hc         1 2I       0.100710
     36 H9          39.3610    37.1090    16.9240 ha         1 2I       0.186418
     37 H10         33.4880    37.8910    26.1540 h1         1 2I      -0.039595
     38 H11         35.7030    37.7360    19.4670 ha         1 2I       0.172062
     39 H12         35.9400    36.2180    14.4680 ha         1 2I       0.158176
     40 H13         34.7940    35.2240    16.4300 ha         1 2I       0.166753
     41 H14         35.2180    39.8560    20.8360 h4         1 2I       0.089849
     42 H15         34.0540    35.1880    24.4180 h1         1 2I       0.116870
     43 H16         32.5820    34.9190    23.4830 h1         1 2I       0.116870
     44 H17         33.9200    33.7710    23.4230 h1         1 2I       0.116870
     45 H18         33.7900    40.5680    24.9710 hn         1 2I       0.405058
     46 H19         36.4280    34.2750    19.3110 hc         1 2I       0.122946
     47 H20         34.8710    34.4740    18.4720 hc         1 2I       0.122946
     48 H52         38.2230    37.1670    14.7100 ha         1 2I       0.149116
@<TRIPOS>BOND
     1     1     2 1   
     2     1    10 1   
     3     1    28 1   
     4     1    29 1   
     5     2     6 1   
     6     2    30 1   
     7     2    31 1   
     8     3     4 1   
     9     3     6 1   
    10     3    32 1   
    11     3    33 1   
    12     4    10 1   
    13     4    34 1   
    14     4    35 1   
    15     5     8 ar  
    16     5    13 ar  
    17     5    36 1   
    18     7    18 1   
    19     7    24 2   
    20     7    25 1   
    21     8    19 ar  
    22     8    21 1   
    23     9    23 ar  
    24     9    26 ar  
    25     9    27 1   
    26    10    27 1   
    27    10    37 1   
    28    11    12 1   
    29    11    16 ar  
    30    11    17 ar  
    31    12    18 2   
    32    12    38 1   
    33    13    14 ar  
    34    13    48 1   
    35    14    15 ar  
    36    14    39 1   
    37    15    19 ar  
    38    15    40 1   
    39    16    25 1   
    40    16    26 ar  
    41    17    23 ar  
    42    17    41 1   
    43    18    22 1   
    44    19    22 1   
    45    20    25 1   
    46    20    42 1   
    47    20    43 1   
    48    20    44 1   
    49    22    46 1   
    50    22    47 1   
    51    27    45 1   
@<TRIPOS>SUBSTRUCTURE
     1 2I         1 TEMP              0 ****  ****    0 ROOT
