@<TRIPOS>MOLECULE
L49
   41    43     1     0     0
SMALL
resp


@<TRIPOS>ATOM
      1 O1           3.7480   -50.0540     7.1170 o          1 L49      -0.798894
      2 C1           3.0010   -49.1060     6.7950 c          1 L49       0.896676
      3 O2           3.4290   -47.9340     6.7110 o          1 L49      -0.798894
      4 C2           1.5770   -49.4210     6.4880 cc         1 L49       0.038484
      5 C3          -0.1300   -50.9210     6.2860 ca         1 L49       0.256739
      6 C4          -0.9520   -52.0650     6.2910 ca         1 L49      -0.330635
      7 C5          -2.3130   -51.9370     5.9450 ca         1 L49      -0.177083
      8 C6          -2.8210   -50.6850     5.5790 ca         1 L49      -0.186339
      9 C7          -1.9990   -49.5400     5.5820 ca         1 L49      -0.023298
     10 C8          -0.6220   -49.6230     5.9600 ca         1 L49       0.141103
     11 C9           0.4710   -48.6820     6.1240 cd         1 L49      -0.303967
     12 C10          0.3810   -47.1910     5.9730 c3         1 L49       0.098196
     13 C11         -0.2100   -46.5270     7.2340 c3         1 L49       0.164990
     14 C12         -0.7300   -45.1000     6.9790 c3         1 L49      -0.016025
     15 O3          -1.8880   -45.1380     6.1520 os         1 L49      -0.507934
     16 C13         -3.1370   -45.2530     6.7350 ca         1 L49       0.658240
     17 C16         -3.3730   -45.5900     8.0930 ca         1 L49      -0.598335
     18 C15         -4.6920   -45.7160     8.5830 ca         1 L49       0.361685
     19 CC1         -4.9110   -46.1090    10.0360 c3         1 L49      -0.367121
     20 C14         -5.7880   -45.5040     7.7220 ca         1 L49      -0.181277
     21 CL1         -7.4050   -45.7010     8.2790 cl         1 L49      -0.151478
     22 C17         -5.5580   -45.1490     6.3820 ca         1 L49       0.003576
     23 C18         -4.2430   -45.0330     5.8930 ca         1 L49      -0.418640
     24 CL2         -2.6990   -48.0390     5.1160 cl         1 L49      -0.144247
     25 H1          -0.5470   -53.0190     6.5850 ha         1 L49       0.178527
     26 H2          -2.9490   -52.8070     5.9630 ha         1 L49       0.143166
     27 H3          -3.8620   -50.6000     5.3070 ha         1 L49       0.130130
     28 H5          -0.2420   -46.9390     5.1150 hc         1 L49       0.031086
     29 H6           1.3540   -46.7640     5.7460 hc         1 L49       0.031086
     30 H7           0.5350   -46.5320     8.0290 hc         1 L49      -0.032640
     31 H8          -1.0430   -47.1260     7.5990 hc         1 L49      -0.032640
     32 H9           0.0420   -44.5300     6.4630 h1         1 L49       0.092367
     33 H10         -0.9160   -44.5740     7.9150 h1         1 L49       0.092367
     34 H11         -2.5430   -45.7660     8.7610 ha         1 L49       0.232303
     35 HC1         -5.5900   -45.4170    10.5400 hc         1 L49       0.107198
     36 HC2         -5.3480   -47.1100    10.0910 hc         1 L49       0.107198
     37 HC3         -3.9770   -46.1160    10.6000 hc         1 L49       0.107198
     38 H19         -4.0870   -44.7710     4.8560 ha         1 L49       0.185736
     39 H22         -6.3950   -44.9810     5.7190 ha         1 L49       0.134144
     40 N1           1.2120   -50.7520     6.5730 na         1 L49      -0.500003
     41 H            1.8910   -51.4660     6.8340 hn         1 L49       0.377255
@<TRIPOS>BOND
     1     1     2 1   
     2     2     3 1   
     3     2     4 1   
     4     4    11 2   
     5     4    40 1   
     6     5     6 ar  
     7     5    10 ar  
     8     5    40 1   
     9     6     7 ar  
    10     6    25 1   
    11     7     8 ar  
    12     7    26 1   
    13     8     9 ar  
    14     8    27 1   
    15     9    10 ar  
    16     9    24 1   
    17    10    11 1   
    18    11    12 1   
    19    12    13 1   
    20    12    28 1   
    21    12    29 1   
    22    13    14 1   
    23    13    30 1   
    24    13    31 1   
    25    14    15 1   
    26    14    32 1   
    27    14    33 1   
    28    15    16 1   
    29    16    17 ar  
    30    16    23 ar  
    31    17    18 ar  
    32    17    34 1   
    33    18    19 1   
    34    18    20 ar  
    35    19    35 1   
    36    19    36 1   
    37    19    37 1   
    38    20    21 1   
    39    20    22 ar  
    40    22    23 ar  
    41    22    39 1   
    42    23    38 1   
    43    40    41 1   
@<TRIPOS>SUBSTRUCTURE
     1 L49         1 TEMP              0 ****  ****    0 ROOT
