@<TRIPOS>MOLECULE
L3C
   45    47     1     0     0
SMALL
resp


@<TRIPOS>ATOM
      1 CD2         14.8240    -5.5740    -0.0950 c3         1 L3C      -0.516272
      2 CD1         15.4100    -4.5800    -1.1310 c3         1 L3C       0.396964
      3 CD3         15.0450    -5.1770    -2.5050 c3         1 L3C      -0.516272
      4 C3          15.0000    -3.0810    -0.8560 c3         1 L3C      -0.205184
      5 C4          15.6260    -1.9910    -1.7550 ca         1 L3C       0.060354
      6 C5          16.4950    -2.2940    -2.8280 ca         1 L3C      -0.234061
      7 C6          16.9110    -1.2930    -3.7150 ca         1 L3C      -0.129816
      8 C7          16.5210     0.0380    -3.5030 ca         1 L3C      -0.112905
      9 C8          15.7880     0.4120    -2.3600 cp         1 L3C       0.030703
     10 C9          15.4740     1.8320    -2.0910 cp         1 L3C       0.001620
     11 C10         15.1410     2.7150    -3.1460 ca         1 L3C      -0.116178
     12 C11         14.7980     4.0580    -2.8920 ca         1 L3C      -0.211696
     13 C12         14.7940     4.5480    -1.5750 ca         1 L3C      -0.017707
     14 C13         15.1520     3.6970    -0.5160 ca         1 L3C      -0.038679
     15 CL1         15.1670     4.3070     1.0980 cl         1 L3C      -0.098671
     16 C14         15.4910     2.3530    -0.7760 ca         1 L3C      -0.036294
     17 C15         15.3470    -0.6200    -1.5010 ca         1 L3C      -0.122478
     18 N3          15.3360    -2.7760     0.5290 nh         1 L3C      -0.591439
     19 C2          14.2640    -2.5230     1.2770 cz         1 L3C       0.818054
     20 N2          14.3550    -2.2990     2.5930 nh         1 L3C      -0.986328
     21 N1          13.1360    -2.5500     0.5500 n          1 L3C      -0.193455
     22 C1          11.7810    -2.2580     1.0360 c3         1 L3C      -0.335535
     23 C16         13.4690    -2.8900    -0.7990 c          1 L3C       0.617565
     24 O1          12.6470    -3.0010    -1.7150 o          1 L3C      -0.449569
     25 HD2         14.9200    -5.2280     0.9320 hc         1 L3C       0.147763
     26 HD3         13.7610    -5.7560    -0.2620 hc         1 L3C       0.147763
     27 HD4         15.3240    -6.5430    -0.1590 hc         1 L3C       0.147763
     28 HD1         16.4950    -4.6260    -1.0370 hc         1 L3C       0.026504
     29 HD5         15.5210    -6.1500    -2.6420 hc         1 L3C       0.147763
     30 HD6         13.9720    -5.3530    -2.5660 hc         1 L3C       0.147763
     31 HD7         15.3120    -4.5770    -3.3680 hc         1 L3C       0.147763
     32 H6          16.8570    -3.2880    -3.0200 ha         1 L3C       0.169231
     33 H7          17.5260    -1.5540    -4.5670 ha         1 L3C       0.164071
     34 H8          16.8150     0.7850    -4.2160 ha         1 L3C       0.145370
     35 H9          15.1170     2.3520    -4.1630 ha         1 L3C       0.145433
     36 H10         14.5200     4.7130    -3.7050 ha         1 L3C       0.174689
     37 H11         14.5170     5.5730    -1.3740 ha         1 L3C       0.138776
     38 H12         15.7710     1.7170     0.0470 ha         1 L3C       0.095961
     39 H13         14.7440    -0.3440    -0.6510 ha         1 L3C       0.138991
     40 H5          16.2980    -2.7810     0.8710 hn         1 L3C       0.416100
     41 H4          13.5760    -2.0350     3.1930 hn         1 L3C       0.483113
     42 H1          11.0170    -2.6390     0.3590 h1         1 L3C       0.173115
     43 H2          11.6230    -2.7040     2.0160 h1         1 L3C       0.173115
     44 H3          11.6550    -1.1800     1.1210 h1         1 L3C       0.173115
     45 H14         15.2760    -2.3090     3.0320 hn         1 L3C       0.483113
@<TRIPOS>BOND
     1     1     2 1   
     2     1    25 1   
     3     1    26 1   
     4     1    27 1   
     5     2     3 1   
     6     2     4 1   
     7     2    28 1   
     8     3    29 1   
     9     3    30 1   
    10     3    31 1   
    11     4     5 1   
    12     4    18 1   
    13     4    23 1   
    14     5     6 ar  
    15     5    17 ar  
    16     6     7 ar  
    17     6    32 1   
    18     7     8 ar  
    19     7    33 1   
    20     8     9 ar  
    21     8    34 1   
    22     9    10 1   
    23     9    17 ar  
    24    10    11 ar  
    25    10    16 ar  
    26    11    12 ar  
    27    11    35 1   
    28    12    13 ar  
    29    12    36 1   
    30    13    14 ar  
    31    13    37 1   
    32    14    15 1   
    33    14    16 ar  
    34    16    38 1   
    35    17    39 1   
    36    18    19 2   
    37    18    40 1   
    38    19    20 1   
    39    19    21 1   
    40    20    41 1   
    41    20    45 1   
    42    21    22 1   
    43    21    23 1   
    44    22    42 1   
    45    22    43 1   
    46    22    44 1   
    47    23    24 2   
@<TRIPOS>SUBSTRUCTURE
     1 L3C         1 TEMP              0 ****  ****    0 ROOT
