@<TRIPOS>MOLECULE
L46
   45    48     1     0     0
SMALL
resp


@<TRIPOS>ATOM
      1 O1           3.5630   -47.8220     6.3170 o          1 L46      -0.795799
      2 C1           3.0100   -48.8330     6.8080 c          1 L46       0.876572
      3 O2           3.6260   -49.6050     7.5790 o          1 L46      -0.795799
      4 C2           1.5980   -49.1190     6.4850 cc         1 L46       0.039404
      5 C3          -0.2690   -50.4180     6.6090 ca         1 L46       0.361579
      6 C4          -1.2480   -51.4050     6.8700 ca         1 L46      -0.388148
      7 C5          -2.5240   -51.2930     6.2700 ca         1 L46      -0.104348
      8 C6          -2.8030   -50.2050     5.4180 ca         1 L46      -0.279653
      9 C7          -1.8160   -49.2240     5.1700 ca         1 L46      -0.167931
     10 C8          -0.5330   -49.3020     5.7600 ca         1 L46       0.029266
     11 C9           0.6490   -48.4820     5.7200 cd         1 L46      -0.199673
     12 C10          0.7910   -47.1830     4.9810 c3         1 L46       0.089213
     13 C11          0.8860   -45.9530     5.9080 c3         1 L46       0.010687
     14 C12         -0.3040   -45.7920     6.8650 c3         1 L46      -0.132810
     15 O3          -1.4470   -45.4190     6.1060 os         1 L46      -0.357525
     16 C13         -2.6440   -45.2630     6.7710 ca         1 L46       0.425980
     17 C17         -4.8920   -44.2570     6.7000 ca         1 L46      -0.183718
     18 C18         -3.6330   -44.4910     6.1100 ca         1 L46      -0.339686
     19 H1          -1.0200   -52.2380     7.5250 ha         1 L46       0.175014
     20 H2          -3.2780   -52.0460     6.4600 ha         1 L46       0.116894
     21 H3          -3.7770   -50.1190     4.9550 ha         1 L46       0.137971
     22 H4          -2.0560   -48.3850     4.5240 ha         1 L46       0.161876
     23 H5          -0.0600   -47.0510     4.3180 hc         1 L46      -0.001940
     24 H6           1.6670   -47.2160     4.3350 hc         1 L46      -0.001940
     25 H7           0.9960   -45.0490     5.3040 hc         1 L46       0.039867
     26 H8           1.7930   -46.0180     6.5050 hc         1 L46       0.039867
     27 H9          -0.0850   -45.0060     7.5900 h1         1 L46       0.112304
     28 H10         -0.4510   -46.7220     7.4180 h1         1 L46       0.112304
     29 H19         -3.4150   -44.0650     5.1410 ha         1 L46       0.172095
     30 H22         -5.6350   -43.6550     6.1980 ha         1 L46       0.152703
     31 C16         -2.9380   -45.8450     8.0360 ca         1 L46      -0.412914
     32 N1           1.0290   -50.2520     7.0340 na         1 L46      -0.562078
     33 CO1         -6.2180   -45.7260     9.9160 c3         1 L46      -0.131273
     34 CO2         -4.7390   -46.1890     9.8810 c3         1 L46       0.059924
     35 C15         -4.2090   -45.6260     8.5910 ca         1 L46       0.101327
     36 C14         -5.1540   -44.8350     7.9540 ca         1 L46      -0.044321
     37 CO3         -6.4180   -44.7160     8.7620 c3         1 L46       0.050085
     38 H11         -2.2390   -46.4640     8.5730 ha         1 L46       0.170740
     39 HO1         -6.5040   -43.6970     9.1390 hc         1 L46       0.000606
     40 HO2         -7.2950   -44.9460     8.1570 hc         1 L46       0.000606
     41 HO3         -6.5030   -45.3110    10.8850 hc         1 L46       0.034710
     42 HO4         -6.8570   -46.5930     9.7370 hc         1 L46       0.034710
     43 HO5         -4.6540   -47.2760     9.9000 hc         1 L46       0.005046
     44 HO6         -4.1720   -45.7890    10.7160 hc         1 L46       0.005046
     45 H            1.5630   -50.8430     7.6520 hn         1 L46       0.383159
@<TRIPOS>BOND
     1     1     2 1   
     2     2     3 1   
     3     2     4 1   
     4     4    11 2   
     5     4    32 1   
     6     5     6 ar  
     7     5    10 ar  
     8     5    32 1   
     9     6     7 ar  
    10     6    19 1   
    11     7     8 ar  
    12     7    20 1   
    13     8     9 ar  
    14     8    21 1   
    15     9    10 ar  
    16     9    22 1   
    17    10    11 1   
    18    11    12 1   
    19    12    13 1   
    20    12    23 1   
    21    12    24 1   
    22    13    14 1   
    23    13    25 1   
    24    13    26 1   
    25    14    15 1   
    26    14    27 1   
    27    14    28 1   
    28    15    16 1   
    29    16    18 ar  
    30    16    31 ar  
    31    17    18 ar  
    32    17    30 1   
    33    17    36 ar  
    34    18    29 1   
    35    31    35 ar  
    36    31    38 1   
    37    32    45 1   
    38    33    34 1   
    39    33    37 1   
    40    33    41 1   
    41    33    42 1   
    42    34    35 1   
    43    34    43 1   
    44    34    44 1   
    45    35    36 ar  
    46    36    37 1   
    47    37    39 1   
    48    37    40 1   
@<TRIPOS>SUBSTRUCTURE
     1 L46         1 TEMP              0 ****  ****    0 ROOT
