@<TRIPOS>MOLECULE
2N
   53    56     1     0     0
SMALL
resp


@<TRIPOS>ATOM
      1 C5          38.2630    36.7140    17.0130 ca         1 2N      -0.504349
      2 C6          34.5450    34.9770    21.1830 c          1 2N       0.655958
      3 C7          37.5970    36.1890    18.1370 ca         1 2N       0.365803
      4 C8          34.0440    38.9760    23.7380 ca         1 2N       1.093805
      5 C10         34.8030    37.8110    21.4410 ca         1 2N      -0.384975
      6 C11         35.2540    37.1250    20.2340 cc         1 2N      -0.207000
      7 C12         37.6230    36.7430    15.7590 ca         1 2N       0.461986
      8 C13         36.3270    36.2160    15.6230 ca         1 2N      -0.405291
      9 C14         35.6720    35.6680    16.7400 ca         1 2N      -0.149402
     10 C15         34.3070    37.0370    22.5110 ca         1 2N       0.494195
     11 C16         34.8520    39.2090    21.6170 ca         1 2N       0.429487
     12 C17         35.1650    35.7820    20.1250 cd         1 2N       0.100784
     13 C18         36.2930    35.6640    18.0030 ca         1 2N       0.166980
     14 F1          38.1960    36.1970    19.3280 f          1 2N      -0.182097
     15 O2          35.6500    35.0620    19.0540 os         1 2N      -0.335596
     16 N1          34.4790    39.7920    22.7770 nb         1 2N      -0.829302
     17 O3          34.3290    33.7760    21.0230 o          1 2N      -0.554951
     18 N2          34.2120    35.6180    22.3420 n          1 2N      -0.212726
     19 N3          33.9310    37.6500    23.6560 nb         1 2N      -0.639115
     20 N4          33.6720    39.5650    24.9270 nh         1 2N      -0.970382
     21 H9          39.2580    37.1160    17.1170 ha         1 2N       0.246210
     22 H11         35.7030    37.7360    19.4670 ha         1 2N       0.160107
     23 H12         35.8370    36.2250    14.6600 ha         1 2N       0.219220
     24 H13         34.6920    35.2300    16.6230 ha         1 2N       0.196867
     25 H14         35.2180    39.8560    20.8360 h4         1 2N       0.102350
     26 H18         33.7900    40.5680    24.9710 hn         1 2N       0.405171
     27 F2          38.2360    37.2740    14.7020 f          1 2N      -0.213111
     28 C2          32.3860    39.3430    28.5030 c3         1 2N       0.232708
     29 C1          32.8830    39.9950    27.2020 c3         1 2N      -0.298363
     30 C9          33.1620    38.9330    26.1270 c3         1 2N       0.547998
     31 C4          34.1670    37.8860    26.6360 c3         1 2N      -0.298363
     32 C3          33.6710    37.2350    27.9360 c3         1 2N       0.232708
     33 O1          33.3910    38.2970    29.0120 os         1 2N      -0.462661
     34 C19         33.6780    34.8440    23.4440 c3         1 2N      -0.177335
     35 CB1         34.6980    33.7920    23.8680 c3         1 2N      -0.066148
     36 CB2         34.1350    32.9770    25.0290 c3         1 2N       0.356835
     37 OB1         35.0780    32.0040    25.4210 oh         1 2N      -0.728420
     38 H3          31.4000    38.8530    28.3200 h1         1 2N       0.019107
     39 H4          32.2220    40.1260    29.2830 h1         1 2N       0.019107
     40 H1          33.8170    40.5710    27.4080 hc         1 2N       0.095756
     41 H2          32.1250    40.7260    26.8280 hc         1 2N       0.095756
     42 H10         32.2070    38.4260    25.8480 h1         1 2N      -0.022358
     43 H7          34.3310    37.1040    25.8550 hc         1 2N       0.095756
     44 H8          35.1540    38.3770    26.8180 hc         1 2N       0.095756
     45 H5          32.7370    36.6590    27.7310 h1         1 2N       0.019107
     46 H6          34.4290    36.5040    28.3100 h1         1 2N       0.019107
     47 H16         33.4620    35.5230    24.3060 h1         1 2N       0.101570
     48 H17         32.7330    34.3390    23.1210 h1         1 2N       0.101570
     49 HB1         34.9140    33.1120    23.0060 hc         1 2N       0.043403
     50 HB2         35.6430    34.2970    24.1910 hc         1 2N       0.043403
     51 HB3         33.9190    33.6560    25.8920 h1         1 2N      -0.004687
     52 HB4         33.1900    32.4710    24.7070 h1         1 2N      -0.004687
     53 HB5         35.2270    31.4530    24.6530 ho         1 2N       0.432747
@<TRIPOS>BOND
     1     1     3 ar  
     2     1     7 ar  
     3     1    21 1   
     4     2    12 1   
     5     2    17 2   
     6     2    18 1   
     7     3    13 ar  
     8     3    14 1   
     9     4    16 ar  
    10     4    19 ar  
    11     4    20 1   
    12     5     6 1   
    13     5    10 ar  
    14     5    11 ar  
    15     6    12 2   
    16     6    22 1   
    17     7     8 ar  
    18     7    27 1   
    19     8     9 ar  
    20     8    23 1   
    21     9    13 ar  
    22     9    24 1   
    23    10    18 1   
    24    10    19 ar  
    25    11    16 ar  
    26    11    25 1   
    27    12    15 1   
    28    13    15 1   
    29    18    34 1   
    30    20    26 1   
    31    20    30 1   
    32    28    29 1   
    33    28    33 1   
    34    28    38 1   
    35    28    39 1   
    36    29    30 1   
    37    29    40 1   
    38    29    41 1   
    39    30    31 1   
    40    30    42 1   
    41    31    32 1   
    42    31    43 1   
    43    31    44 1   
    44    32    33 1   
    45    32    45 1   
    46    32    46 1   
    47    34    35 1   
    48    34    47 1   
    49    34    48 1   
    50    35    36 1   
    51    35    49 1   
    52    35    50 1   
    53    36    37 1   
    54    36    51 1   
    55    36    52 1   
    56    37    53 1   
@<TRIPOS>SUBSTRUCTURE
     1 2N         1 TEMP              0 ****  ****    0 ROOT
