@<TRIPOS>MOLECULE
L51
   44    47     1     0     0
SMALL
resp


@<TRIPOS>ATOM
      1 O1           3.7530   -49.6150     6.8640 o          1 L51      -0.801906
      2 C1           2.8850   -48.7320     6.6600 c          1 L51       0.903701
      3 O2           3.1750   -47.5140     6.7240 o          1 L51      -0.801906
      4 C2           1.4960   -49.1650     6.3450 cc         1 L51       0.034274
      5 C3          -0.1710   -50.7330     6.1720 ca         1 L51       0.258639
      6 C4          -0.9640   -51.8980     6.1850 ca         1 L51      -0.327109
      7 C5          -2.3380   -51.8060     5.8920 ca         1 L51      -0.184353
      8 C6          -2.8940   -50.5470     5.5890 ca         1 L51      -0.165454
      9 C7          -2.1050   -49.3750     5.5930 ca         1 L51      -0.047173
     10 C8          -0.7150   -49.4400     5.8830 ca         1 L51       0.146706
     11 C9           0.3470   -48.4700     6.0110 cd         1 L51      -0.292936
     12 C10          0.2140   -46.9860     5.9180 c3         1 L51       0.041266
     13 C11         -0.0850   -46.4210     7.3060 c3         1 L51       0.228233
     14 C12         -0.6140   -44.9920     7.3050 c3         1 L51      -0.122677
     15 O3          -1.9030   -44.9250     6.7060 os         1 L51      -0.431150
     16 C13         -3.0240   -45.1510     7.4790 ca         1 L51       0.403816
     17 C14         -5.3750   -45.5600     9.0080 ca         1 L51      -0.384962
     18 C15         -4.1330   -45.9970     9.4930 ca         1 L51      -0.105657
     19 C16         -2.9740   -45.8160     8.7240 ca         1 L51      -0.349740
     20 CL2         -2.8920   -47.8610     5.2690 cl         1 L51      -0.135330
     21 H1          -0.5180   -52.8580     6.4260 ha         1 L51       0.176718
     22 H2          -2.9480   -52.6930     5.9000 ha         1 L51       0.142627
     23 H3          -3.9450   -50.4850     5.3600 ha         1 L51       0.123746
     24 H5          -0.5740   -46.7020     5.2180 hc         1 L51       0.048678
     25 H6           1.1230   -46.5310     5.5110 hc         1 L51       0.048678
     26 H7           0.8230   -46.4830     7.8980 hc         1 L51      -0.044908
     27 H8          -0.8060   -47.0660     7.8110 hc         1 L51      -0.044908
     28 H9           0.0690   -44.3810     6.7140 h1         1 L51       0.117515
     29 H10         -0.6280   -44.5690     8.3150 h1         1 L51       0.117515
     30 H11         -2.0410   -46.1720     9.1260 ha         1 L51       0.183405
     31 H12         -4.0730   -46.4940    10.4510 ha         1 L51       0.150052
     32 H13         -6.2680   -45.7130     9.5990 ha         1 L51       0.171022
     33 C17         -5.4560   -44.9040     7.7670 ca         1 L51       0.252309
     34 C18         -4.2760   -44.6950     7.0020 ca         1 L51      -0.006429
     35 C19         -4.3680   -44.0050     5.7700 ca         1 L51      -0.141836
     36 C20         -5.6110   -43.5270     5.3120 ca         1 L51      -0.194941
     37 C21         -6.7780   -43.7550     6.0710 ca         1 L51      -0.108468
     38 C22         -6.7020   -44.4460     7.2930 ca         1 L51      -0.284185
     39 N1           1.1740   -50.5100     6.4280 na         1 L51      -0.503810
     40 H14         -3.4830   -43.8280     5.1810 ha         1 L51       0.139299
     41 H15         -5.6680   -42.9880     4.3740 ha         1 L51       0.138813
     42 H16         -7.7320   -43.3880     5.7170 ha         1 L51       0.127117
     43 H17         -7.5960   -44.6140     7.8720 ha         1 L51       0.147554
     44 H            1.8790   -51.1830     6.6900 hn         1 L51       0.378155
@<TRIPOS>BOND
     1     1     2 1   
     2     2     3 1   
     3     2     4 1   
     4     4    11 2   
     5     4    39 1   
     6     5     6 ar  
     7     5    10 ar  
     8     5    39 1   
     9     6     7 ar  
    10     6    21 1   
    11     7     8 ar  
    12     7    22 1   
    13     8     9 ar  
    14     8    23 1   
    15     9    10 ar  
    16     9    20 1   
    17    10    11 1   
    18    11    12 1   
    19    12    13 1   
    20    12    24 1   
    21    12    25 1   
    22    13    14 1   
    23    13    26 1   
    24    13    27 1   
    25    14    15 1   
    26    14    28 1   
    27    14    29 1   
    28    15    16 1   
    29    16    19 ar  
    30    16    34 ar  
    31    17    18 ar  
    32    17    32 1   
    33    17    33 ar  
    34    18    19 ar  
    35    18    31 1   
    36    19    30 1   
    37    33    34 ar  
    38    33    38 ar  
    39    34    35 ar  
    40    35    36 ar  
    41    35    40 1   
    42    36    37 ar  
    43    36    41 1   
    44    37    38 ar  
    45    37    42 1   
    46    38    43 1   
    47    39    44 1   
@<TRIPOS>SUBSTRUCTURE
     1 L51         1 TEMP              0 ****  ****    0 ROOT
