@<TRIPOS>MOLECULE
L26
   43    46     1     0     0
SMALL
resp


@<TRIPOS>ATOM
      1 O1           3.8290   -49.9080     7.3570 o          1 L26      -0.767687
      2 C1           3.1150   -49.0420     6.8010 c          1 L26       0.798268
      3 O2           3.5510   -47.8980     6.5560 o          1 L26      -0.767687
      4 C2           1.7060   -49.3580     6.4400 cc         1 L26       0.233852
      5 C3          -0.1080   -50.6490     6.3790 ca         1 L26       0.372625
      6 C4          -1.0210   -51.7080     6.5400 ca         1 L26      -0.335849
      7 C5          -2.3350   -51.5530     6.0490 ca         1 L26      -0.133145
      8 C6          -2.6990   -50.3590     5.3940 ca         1 L26      -0.259146
      9 C7          -1.7630   -49.3100     5.2420 ca         1 L26      -0.205438
     10 C8          -0.4420   -49.4340     5.7430 ca         1 L26       0.092668
     11 C9           0.7330   -48.6070     5.8020 cd         1 L26      -0.396931
     12 C10          0.8590   -47.2050     5.2670 c3         1 L26       0.140287
     13 C11          0.9700   -46.1520     6.3920 c3         1 L26       0.098685
     14 C12         -0.0850   -45.0400     6.3280 c3         1 L26      -0.072498
     15 O3          -1.4120   -45.4800     6.0440 os         1 L26      -0.399135
     16 C13         -2.2390   -45.8040     7.0950 ca         1 L26       0.365451
     17 C14         -4.0390   -46.5570     9.1590 ca         1 L26      -0.393822
     18 C15         -2.7240   -47.0520     9.1500 ca         1 L26      -0.090774
     19 C16         -1.8290   -46.6750     8.1340 ca         1 L26      -0.336074
     20 H1          -0.7240   -52.6190     7.0420 ha         1 L26       0.180890
     21 H2          -3.0570   -52.3470     6.1620 ha         1 L26       0.128334
     22 H3          -3.7030   -50.2340     5.0160 ha         1 L26       0.144948
     23 H4          -2.0620   -48.3870     4.7600 ha         1 L26       0.163011
     24 H5           0.0190   -46.9830     4.6120 hc         1 L26       0.021931
     25 H6           1.7410   -47.1370     4.6230 hc         1 L26       0.021931
     26 H7           1.9530   -45.6850     6.3460 hc         1 L26      -0.010063
     27 H8           0.9550   -46.6330     7.3660 hc         1 L26      -0.010063
     28 H9           0.1910   -44.3770     5.5160 h1         1 L26       0.106028
     29 H10         -0.0680   -44.4350     7.2310 h1         1 L26       0.106028
     30 H11         -0.8490   -47.1140     8.1370 ha         1 L26       0.178428
     31 H12         -2.4000   -47.7370     9.9190 ha         1 L26       0.147057
     32 H13         -4.7160   -46.8570     9.9410 ha         1 L26       0.174157
     33 C17         -4.4640   -45.6870     8.1310 ca         1 L26       0.264279
     34 C18         -3.5690   -45.3160     7.0920 ca         1 L26      -0.036869
     35 C19         -4.0200   -44.4490     6.0700 ca         1 L26      -0.134698
     36 C20         -5.3470   -43.9770     6.0650 ca         1 L26      -0.188526
     37 C21         -6.2360   -44.3580     7.0890 ca         1 L26      -0.108874
     38 C22         -5.7910   -45.2050     8.1240 ca         1 L26      -0.283219
     39 O4           1.2060   -50.5980     6.7950 os         1 L26      -0.358978
     40 H14         -3.3600   -44.1410     5.2740 ha         1 L26       0.136063
     41 H15         -5.6740   -43.3180     5.2720 ha         1 L26       0.138279
     42 H16         -7.2550   -43.9990     7.0840 ha         1 L26       0.128097
     43 H17         -6.4740   -45.4960     8.9090 ha         1 L26       0.148178
@<TRIPOS>BOND
     1     1     2 1   
     2     2     3 1   
     3     2     4 1   
     4     4    11 2   
     5     4    39 1   
     6     5     6 ar  
     7     5    10 ar  
     8     5    39 1   
     9     6     7 ar  
    10     6    20 1   
    11     7     8 ar  
    12     7    21 1   
    13     8     9 ar  
    14     8    22 1   
    15     9    10 ar  
    16     9    23 1   
    17    10    11 1   
    18    11    12 1   
    19    12    13 1   
    20    12    24 1   
    21    12    25 1   
    22    13    14 1   
    23    13    26 1   
    24    13    27 1   
    25    14    15 1   
    26    14    28 1   
    27    14    29 1   
    28    15    16 1   
    29    16    19 ar  
    30    16    34 ar  
    31    17    18 ar  
    32    17    32 1   
    33    17    33 ar  
    34    18    19 ar  
    35    18    31 1   
    36    19    30 1   
    37    33    34 ar  
    38    33    38 ar  
    39    34    35 ar  
    40    35    36 ar  
    41    35    40 1   
    42    36    37 ar  
    43    36    41 1   
    44    37    38 ar  
    45    37    42 1   
    46    38    43 1   
@<TRIPOS>SUBSTRUCTURE
     1 L26         1 TEMP              0 ****  ****    0 ROOT
