@<TRIPOS>MOLECULE
2U
   64    68     1     0     0
SMALL
resp


@<TRIPOS>ATOM
      1  C5         38.2630    36.7140    17.0130 ca         1 2U      -0.512703
      2  C6         34.5450    34.9770    21.1830 c          1 2U       0.711694
      3  C7         37.5970    36.1890    18.1370 ca         1 2U       0.382997
      4  C8         34.0440    38.9760    23.7380 ca         1 2U       1.117731
      5  C10        34.8030    37.8110    21.4410 ca         1 2U      -0.357326
      6  C11        35.2540    37.1250    20.2340 cc         1 2U      -0.215445
      7  C12        37.6230    36.7430    15.7590 ca         1 2U       0.466014
      8  C13        36.3270    36.2160    15.6230 ca         1 2U      -0.409615
      9  C14        35.6720    35.6680    16.7400 ca         1 2U      -0.132093
     10  C15        34.3070    37.0370    22.5110 ca         1 2U       0.497603
     11  C16        34.8520    39.2090    21.6170 ca         1 2U       0.417972
     12  C17        35.1650    35.7820    20.1250 cd         1 2U       0.088967
     13  C18        36.2930    35.6640    18.0030 ca         1 2U       0.135564
     14  F1         38.1960    36.1970    19.3280 f          1 2U      -0.185433
     15  O2         35.6500    35.0620    19.0540 os         1 2U      -0.312425
     16  N1         34.4790    39.7920    22.7770 nb         1 2U      -0.827182
     17  O3         34.3290    33.7760    21.0230 o          1 2U      -0.587959
     18  N2         34.2120    35.6180    22.3420 n          1 2U      -0.324986
     19  N3         33.9310    37.6500    23.6560 nb         1 2U      -0.666722
     20  N4         33.6720    39.5650    24.9270 nh         1 2U      -1.003784
     21  H9         39.2580    37.1160    17.1170 ha         1 2U       0.248068
     22  H11        35.7030    37.7360    19.4670 ha         1 2U       0.160666
     23  H12        35.8370    36.2250    14.6600 ha         1 2U       0.219687
     24  H13        34.6920    35.2300    16.6230 ha         1 2U       0.192743
     25  H14        35.2180    39.8560    20.8360 h4         1 2U       0.105073
     26  H18        33.7900    40.5680    24.9710 hn         1 2U       0.403830
     27  F2         38.2360    37.2740    14.7020 f          1 2U      -0.212206
     28  C2         32.3860    39.3430    28.5030 c3         1 2U       0.357359
     29  C1         32.8830    39.9950    27.2020 c3         1 2U      -0.379998
     30  C9         33.1620    38.9330    26.1270 c3         1 2U       0.693997
     31  C4         34.1670    37.8860    26.6360 c3         1 2U      -0.379998
     32  C3         33.6710    37.2350    27.9360 c3         1 2U       0.357359
     33  O1         33.3910    38.2970    29.0120 os         1 2U      -0.512622
     34  CM1        32.9680    35.0150    25.8880 c3         1 2U      -0.197069
     35  CM2        33.4300    35.8030    24.6520 c3         1 2U      -0.054483
     36  CM3        33.7350    34.8580    23.4790 c3         1 2U       0.051246
     37  CM4        34.7790    33.8020    23.8800 c3         1 2U      -0.054483
     38  CM5        34.3160    33.0140    25.1160 c3         1 2U      -0.197069
     39  H3         31.4000    38.8530    28.3200 h1         1 2U      -0.014653
     40  H4         32.2220    40.1260    29.2830 h1         1 2U      -0.014653
     41  H1         33.8170    40.5710    27.4080 hc         1 2U       0.103193
     42  H2         32.1250    40.7260    26.8280 hc         1 2U       0.103193
     43  H10        32.2070    38.4260    25.8480 h1         1 2U      -0.059751
     44  H7         34.3310    37.1040    25.8550 hc         1 2U       0.103193
     45  H8         35.1540    38.3770    26.8180 hc         1 2U       0.103193
     46  H5         32.7370    36.6590    27.7310 h1         1 2U      -0.014653
     47  H6         34.4290    36.5040    28.3100 h1         1 2U      -0.014653
     48  HM1        31.9970    34.5110    25.6660 h1         1 2U       0.140657
     49  HM2        32.7850    35.7130    26.7400 h1         1 2U       0.140657
     50  HM3        34.3470    36.3880    24.9060 hc         1 2U       0.058219
     51  HM4        32.6450    36.5400    24.3540 hc         1 2U       0.058219
     52  HM5        32.7950    34.3480    23.1590 h1         1 2U       0.148133
     53  HM6        34.9610    33.1030    23.0280 hc         1 2U       0.058219
     54  HM7        35.7500    34.3060    24.1020 hc         1 2U       0.058219
     55  HM8        33.4000    32.4290    24.8620 h1         1 2U       0.140657
     56  HM9        35.1010    32.2760    25.4140 h1         1 2U       0.140657
     57  NM1        33.9820    33.9640    26.2250 n3         1 2U      -0.358630
     58  SM1        34.6170    33.8690    27.5810 s6         1 2U       1.227496
     59  OM1        35.5630    32.7280    27.5690 o          1 2U      -0.599049
     60  OM2        33.5400    33.8070    28.5960 o          1 2U      -0.599049
     61  CM6        35.4030    35.1260    27.8090 c3         1 2U      -0.439689
     62 HM10        34.7080    36.0030    27.8210 h1         1 2U       0.148636
     63 HM11        35.9380    35.0590    28.7890 h1         1 2U       0.148636
     64 HM12        36.1500    35.2540    26.9850 h1         1 2U       0.148636
@<TRIPOS>BOND
     1     1     3 ar  
     2     1     7 ar  
     3     1    21 1   
     4     2    12 1   
     5     2    17 2   
     6     2    18 1   
     7     3    13 ar  
     8     3    14 1   
     9     4    16 ar  
    10     4    19 ar  
    11     4    20 1   
    12     5     6 1   
    13     5    10 ar  
    14     5    11 ar  
    15     6    12 2   
    16     6    22 1   
    17     7     8 ar  
    18     7    27 1   
    19     8     9 ar  
    20     8    23 1   
    21     9    13 ar  
    22     9    24 1   
    23    10    18 1   
    24    10    19 ar  
    25    11    16 ar  
    26    11    25 1   
    27    12    15 1   
    28    13    15 1   
    29    18    36 1   
    30    20    26 1   
    31    20    30 1   
    32    28    29 1   
    33    28    33 1   
    34    28    39 1   
    35    28    40 1   
    36    29    30 1   
    37    29    41 1   
    38    29    42 1   
    39    30    31 1   
    40    30    43 1   
    41    31    32 1   
    42    31    44 1   
    43    31    45 1   
    44    32    33 1   
    45    32    46 1   
    46    32    47 1   
    47    34    35 1   
    48    34    48 1   
    49    34    49 1   
    50    34    57 1   
    51    35    36 1   
    52    35    50 1   
    53    35    51 1   
    54    36    37 1   
    55    36    52 1   
    56    37    38 1   
    57    37    53 1   
    58    37    54 1   
    59    38    55 1   
    60    38    56 1   
    61    38    57 1   
    62    57    58 1   
    63    58    59 2   
    64    58    60 2   
    65    58    61 1   
    66    61    62 1   
    67    61    63 1   
    68    61    64 1   
@<TRIPOS>SUBSTRUCTURE
     1 2U         1 TEMP              0 ****  ****    0 ROOT
