@<TRIPOS>MOLECULE
L36
   44    46     1     0     0
SMALL
resp


@<TRIPOS>ATOM
      1 O1           3.6490   -50.1150     7.2940 o          1 L36      -0.793995
      2 C1           3.0240   -49.1120     6.8700 c          1 L36       0.873707
      3 O2           3.5640   -47.9880     6.7460 o          1 L36      -0.793995
      4 C2           1.5940   -49.2660     6.5150 cc         1 L36       0.042187
      5 C3          -0.3070   -50.5040     6.2450 ca         1 L36       0.357790
      6 C4          -1.2940   -51.5080     6.1820 ca         1 L36      -0.379815
      7 C5          -2.5930   -51.1780     5.7270 ca         1 L36      -0.113226
      8 C6          -2.8850   -49.8590     5.3330 ca         1 L36      -0.267903
      9 C7          -1.8850   -48.8630     5.3860 ca         1 L36      -0.165494
     10 C8          -0.5720   -49.1590     5.8500 ca         1 L36       0.014096
     11 C9           0.6450   -48.4010     6.0240 cd         1 L36      -0.189414
     12 C10          0.8700   -46.9540     5.7120 c3         1 L36       0.078094
     13 C11          0.8700   -46.0610     6.9630 c3         1 L36       0.019342
     14 C12         -0.5080   -45.9150     7.6190 c3         1 L36      -0.113845
     15 O3          -1.3790   -45.2890     6.6810 os         1 L36      -0.370315
     16 C13         -2.7070   -45.1670     7.0100 ca         1 L36       0.465437
     17 C16         -3.2740   -45.5370     8.2560 ca         1 L36      -0.397192
     18 C15         -4.6560   -45.3670     8.5000 ca         1 L36       0.077421
     19 C14         -5.4810   -44.8250     7.4880 ca         1 L36      -0.076968
     20 C17         -4.9230   -44.4590     6.2510 ca         1 L36      -0.024685
     21 C18         -3.5490   -44.6330     6.0170 ca         1 L36      -0.380619
     22 CL1         -7.1840   -44.6090     7.7290 cl         1 L36      -0.156133
     23 H1          -1.0650   -52.5220     6.4770 ha         1 L36       0.174999
     24 H2          -3.3580   -51.9400     5.6840 ha         1 L36       0.119395
     25 H3          -3.8810   -49.6150     4.9780 ha         1 L36       0.135394
     26 H4          -2.1240   -47.8590     5.0780 ha         1 L36       0.159223
     27 H5           0.1210   -46.6060     4.9960 hc         1 L36       0.000495
     28 H6           1.8240   -46.8350     5.2000 hc         1 L36       0.000495
     29 H7           1.2320   -45.0660     6.6880 hc         1 L36       0.037482
     30 H8           1.5860   -46.4380     7.6930 hc         1 L36       0.037482
     31 H9          -0.4290   -45.2980     8.5210 h1         1 L36       0.107333
     32 H10         -0.8850   -46.8980     7.9210 h1         1 L36       0.107333
     33 H11         -2.6600   -45.9640     9.0400 ha         1 L36       0.179632
     34 H19         -3.1410   -44.3520     5.0600 ha         1 L36       0.182788
     35 H22         -5.5580   -44.0500     5.4820 ha         1 L36       0.130009
     36 N1           1.0170   -50.5150     6.6490 na         1 L36      -0.559446
     37 H            1.5630   -51.3020     6.9810 hn         1 L36       0.383185
     38 CG1         -5.2270   -45.7990     9.8470 c3         1 L36       0.212349
     39 CG2         -5.7150   -47.2560     9.8160 c3         1 L36      -0.074242
     40 HG1         -4.4600   -45.6870    10.6190 hc         1 L36      -0.041338
     41 HG2         -6.0450   -45.1380    10.1440 hc         1 L36      -0.041338
     42 HG3         -6.5050   -47.3920     9.0740 hc         1 L36       0.014765
     43 HG4         -4.9000   -47.9400     9.5630 hc         1 L36       0.014765
     44 HG5         -6.1130   -47.5450    10.7930 hc         1 L36       0.014765
@<TRIPOS>BOND
     1     1     2 1   
     2     2     3 1   
     3     2     4 1   
     4     4    11 2   
     5     4    36 1   
     6     5     6 ar  
     7     5    10 ar  
     8     5    36 1   
     9     6     7 ar  
    10     6    23 1   
    11     7     8 ar  
    12     7    24 1   
    13     8     9 ar  
    14     8    25 1   
    15     9    10 ar  
    16     9    26 1   
    17    10    11 1   
    18    11    12 1   
    19    12    13 1   
    20    12    27 1   
    21    12    28 1   
    22    13    14 1   
    23    13    29 1   
    24    13    30 1   
    25    14    15 1   
    26    14    31 1   
    27    14    32 1   
    28    15    16 1   
    29    16    17 ar  
    30    16    21 ar  
    31    17    18 ar  
    32    17    33 1   
    33    18    19 ar  
    34    18    38 1   
    35    19    20 ar  
    36    19    22 1   
    37    20    21 ar  
    38    20    35 1   
    39    21    34 1   
    40    36    37 1   
    41    38    39 1   
    42    38    40 1   
    43    38    41 1   
    44    39    42 1   
    45    39    43 1   
    46    39    44 1   
@<TRIPOS>SUBSTRUCTURE
     1 L36         1 TEMP              0 ****  ****    0 ROOT
