@<TRIPOS>MOLECULE
L60
   43    45     1     0     0
SMALL
resp


@<TRIPOS>ATOM
      1 O1           3.9650   -49.5040     7.2170 o          1 L60      -0.744421
      2 C1           3.1650   -48.6930     6.6860 c          1 L60       0.800662
      3 O2           3.5470   -47.5550     6.3200 o          1 L60      -0.744421
      4 C2           1.7420   -49.1030     6.4890 cc         1 L60       0.040939
      5 S1           1.3190   -50.6780     7.1280 ss         1 L60      -0.150956
      6 C3          -0.3300   -50.5390     6.5640 ca         1 L60      -0.034219
      7 C4          -1.3500   -51.5040     6.6890 ca         1 L60      -0.179279
      8 C5          -2.6260   -51.2400     6.1670 ca         1 L60      -0.199299
      9 C6          -2.8770   -50.0180     5.5360 ca         1 L60      -0.144429
     10 C7          -1.8560   -49.0470     5.4330 ca         1 L60      -0.275295
     11 C8          -0.5460   -49.2760     5.9300 ca         1 L60       0.284496
     12 C9           0.6520   -48.4550     5.9070 cd         1 L60      -0.290811
     13 C10          0.6870   -47.0730     5.3240 c3         1 L60       0.138499
     14 C11          0.5840   -45.9870     6.4080 c3         1 L60      -0.085536
     15 C12         -0.7240   -46.0600     7.2200 c3         1 L60      -0.034882
     16 O3          -1.8110   -45.6520     6.3990 os         1 L60      -0.369108
     17 C13         -3.0550   -45.5540     6.9870 ca         1 L60       0.532755
     18 C16         -3.3640   -46.1030     8.2530 ca         1 L60      -0.579654
     19 C15         -4.6430   -45.9430     8.8130 ca         1 L60       0.377793
     20 CC1         -4.9320   -46.5610    10.1730 c3         1 L60      -0.241642
     21 C14         -5.6330   -45.2130     8.1180 ca         1 L60      -0.284533
     22 CL1         -7.1920   -44.9680     8.8280 cl         1 L60      -0.131533
     23 C17         -5.3390   -44.6780     6.8440 ca         1 L60       0.377793
     24 CH1         -6.3830   -43.8850     6.0760 c3         1 L60      -0.241642
     25 C18         -4.0600   -44.8660     6.2830 ca         1 L60      -0.579654
     26 H1          -1.1420   -52.4470     7.1740 ha         1 L60       0.169829
     27 H2          -3.4060   -51.9820     6.2490 ha         1 L60       0.127218
     28 H3          -3.8510   -49.8130     5.1270 ha         1 L60       0.121873
     29 H4          -2.0740   -48.1200     4.9320 ha         1 L60       0.179186
     30 H5          -0.1280   -46.9350     4.6050 hc         1 L60      -0.003064
     31 H6           1.5990   -46.9270     4.7490 hc         1 L60      -0.003064
     32 H7           0.6860   -44.9930     5.9620 hc         1 L60       0.060496
     33 H8           1.4220   -46.0970     7.0970 hc         1 L60       0.060496
     34 H9          -0.6430   -45.3940     8.0850 h1         1 L60       0.094698
     35 H10         -0.8680   -47.0860     7.5730 h1         1 L60       0.094698
     36 H11         -2.6280   -46.6550     8.8150 ha         1 L60       0.211333
     37 HC1         -5.3740   -45.8280    10.8490 hc         1 L60       0.072224
     38 HC2         -5.6220   -47.4010    10.0690 hc         1 L60       0.072224
     39 HC3         -4.0180   -46.9330    10.6390 hc         1 L60       0.072224
     40 HH1         -5.9780   -43.4830     5.1450 hc         1 L60       0.072224
     41 HH2         -7.2410   -44.5130     5.8280 hc         1 L60       0.072224
     42 HH3         -6.7340   -43.0440     6.6760 hc         1 L60       0.072224
     43 H19         -3.8300   -44.4520     5.3110 ha         1 L60       0.211333
@<TRIPOS>BOND
     1     1     2 1   
     2     2     3 1   
     3     2     4 1   
     4     4     5 1   
     5     4    12 2   
     6     5     6 1   
     7     6     7 ar  
     8     6    11 ar  
     9     7     8 ar  
    10     7    26 1   
    11     8     9 ar  
    12     8    27 1   
    13     9    10 ar  
    14     9    28 1   
    15    10    11 ar  
    16    10    29 1   
    17    11    12 1   
    18    12    13 1   
    19    13    14 1   
    20    13    30 1   
    21    13    31 1   
    22    14    15 1   
    23    14    32 1   
    24    14    33 1   
    25    15    16 1   
    26    15    34 1   
    27    15    35 1   
    28    16    17 1   
    29    17    18 ar  
    30    17    25 ar  
    31    18    19 ar  
    32    18    36 1   
    33    19    20 1   
    34    19    21 ar  
    35    20    37 1   
    36    20    38 1   
    37    20    39 1   
    38    21    22 1   
    39    21    23 ar  
    40    23    24 1   
    41    23    25 ar  
    42    24    40 1   
    43    24    41 1   
    44    24    42 1   
    45    25    43 1   
@<TRIPOS>SUBSTRUCTURE
     1 L60         1 TEMP              0 ****  ****    0 ROOT
