@<TRIPOS>MOLECULE
L36
   38    39     1     0     0
SMALL
resp


@<TRIPOS>ATOM
      1  C1         23.9800    12.4590    30.2880 c3         1 L36      -0.353322
      2  C2         23.2750    11.1170    30.5010 c3         1 L36       0.419428
      3  O1         22.1370    11.3490    31.3270 os         1 L36      -0.464301
      4  C3         21.3560    10.2810    31.7350 ca         1 L36       0.930097
      5  N1         21.7260     9.0410    31.3140 nb         1 L36      -0.828080
      6  C4         20.9680     7.9950    31.6700 ca         1 L36       0.748621
      7  C5         19.8450     8.1070    32.4770 ca         1 L36      -0.823227
      8  C6         19.4690     9.3700    32.9030 ca         1 L36       0.812133
      9  N2         18.3180     9.4270    33.6810 nh         1 L36      -0.985825
     10  C7         20.2250    10.4940    32.5300 ca         1 L36      -0.728656
     11  C8         19.8740    11.8560    32.9150 cg         1 L36       0.519991
     12  N3         19.6040    12.9410    33.2140 n1         1 L36      -0.533990
     13  N4         21.4730     6.8390    31.1130 n          1 L36      -0.594516
     14  C9         20.9420     5.6180    31.0120 c          1 L36       0.839927
     15  O2         19.8420     5.2960    31.4540 o          1 L36      -0.597643
     16  C10        21.7560     4.6030    30.2160 c3         1 L36      -0.646732
     17  C11        23.0780     4.2280    30.8820 ca         1 L36       0.402878
     18  C16        23.1370     3.3170    31.9520 ca         1 L36      -0.214812
     19 BR16        21.5740     2.4700    32.6410 br         1 L36      -0.026239
     20  C15        24.3630     3.0180    32.5460 ca         1 L36      -0.064709
     21  C14        25.5360     3.6080    32.0770 ca         1 L36      -0.009087
     22  C13        25.4840     4.5100    31.0170 ca         1 L36      -0.186308
     23 BR13        27.0820     5.3240    30.3860 br         1 L36      -0.030150
     24  C12        24.2610     4.8200    30.4250 ca         1 L36      -0.106671
     25  H1         24.8610    12.3430    29.6580 hc         1 L36       0.095329
     26  H2         23.3130    13.1730    29.8030 hc         1 L36       0.095329
     27  H3         24.2960    12.8900    31.2370 hc         1 L36       0.095329
     28  H4         22.9680    10.6930    29.5420 h1         1 L36      -0.016473
     29  H5         23.9610    10.4110    30.9740 h1         1 L36      -0.016473
     30  H6         19.2630     7.2450    32.7570 ha         1 L36       0.303445
     31  H7         17.8620     8.5710    33.9830 hn         1 L36       0.435879
     32  H8         17.9270    10.3270    33.9510 hn         1 L36       0.435879
     33  H9         22.3650     7.0190    30.6860 hn         1 L36       0.307918
     34  H10        21.1610     3.7060    30.0530 hc         1 L36       0.194431
     35  H11        21.9270     5.0300    29.2320 hc         1 L36       0.194431
     36  H15        24.3990     2.3220    33.3730 ha         1 L36       0.140684
     37  H14        26.4870     3.3750    32.5340 ha         1 L36       0.131477
     38  H12        24.2430     5.5410    29.6200 ha         1 L36       0.124009
@<TRIPOS>BOND
     1     1     2 1   
     2     1    25 1   
     3     1    26 1   
     4     1    27 1   
     5     2     3 1   
     6     2    28 1   
     7     2    29 1   
     8     3     4 1   
     9     4     5 ar  
    10     4    10 ar  
    11     5     6 ar  
    12     6     7 ar  
    13     6    13 1   
    14     7     8 ar  
    15     7    30 1   
    16     8     9 1   
    17     8    10 ar  
    18     9    31 1   
    19     9    32 1   
    20    10    11 1   
    21    11    12 3   
    22    13    14 1   
    23    13    33 1   
    24    14    15 2   
    25    14    16 1   
    26    16    17 1   
    27    16    34 1   
    28    16    35 1   
    29    17    18 ar  
    30    17    24 ar  
    31    18    19 1   
    32    18    20 ar  
    33    20    21 ar  
    34    20    36 1   
    35    21    22 ar  
    36    21    37 1   
    37    22    23 1   
    38    22    24 ar  
    39    24    38 1   
@<TRIPOS>SUBSTRUCTURE
     1 L36         1 TEMP              0 ****  ****    0 ROOT
