@<TRIPOS>MOLECULE
L76
   48    50     1     0     0
SMALL
resp


@<TRIPOS>ATOM
      1  O2         41.4870    17.7480    12.0670 o          1 L76      -0.854640
      2  C1         40.5660    17.5760    12.8960 c          1 L76       0.911628
      3  O1         39.4860    18.2050    12.9250 o          1 L76      -0.854640
      4  C2         40.7850    16.5110    13.9730 c3         1 L76      -0.020967
      5  O3         42.0390    15.8540    13.8050 os         1 L76      -0.304442
      6  C3         42.3400    14.9360    14.7520 cc         1 L76       0.199556
      7  C6         41.9230    13.5730    14.6980 cc         1 L76      -0.138455
      8  BR1        40.9100    12.8860    13.2360 br         1 L76      -0.039439
      9  C5         42.2780    12.8150    15.7840 cd         1 L76       0.016052
     10  C8         42.0210    11.4120    16.0940 ca         1 L76       0.033092
     11  C9         43.0280    10.6020    16.6610 ca         1 L76      -0.102145
     12  C10        42.7790     9.2490    16.9610 ca         1 L76      -0.198740
     13  C11        41.5150     8.6890    16.6950 ca         1 L76      -0.309312
     14  C12        40.5020     9.4850    16.1280 ca         1 L76       0.378234
     15  N1         39.2620     8.8690    15.8850 nh         1 L76      -0.886611
     16  CJ1        39.0020     7.4430    15.9070 c3         1 L76       0.400371
     17  CJ2        37.8800     7.0950    16.9020 c3         1 L76      -0.062761
     18  CJ3        37.8400     5.6230    17.3410 c3         1 L76       0.031336
     19  CJ4        37.7130     4.6090    16.1910 c3         1 L76       0.039640
     20  CJ5        39.0140     4.4570    15.3850 c3         1 L76       0.039640
     21  CJ6        39.2000     5.4610    14.2340 c3         1 L76       0.031336
     22  CJ7        38.7310     6.9050    14.4930 c3         1 L76      -0.062761
     23  C13        40.7560    10.8390    15.8290 ca         1 L76      -0.161989
     24  S1         43.1750    13.7860    16.9220 ss         1 L76      -0.163492
     25  C4         43.0450    15.2090    15.9040 cd         1 L76      -0.036474
     26  C7         43.6740    16.4500    16.4160 c          1 L76       0.779437
     27  O5         44.2670    16.4130    17.5160 o          1 L76      -0.750705
     28  O4         43.6040    17.4990    15.7360 o          1 L76      -0.750705
     29  H1         39.9940    15.7640    13.8960 h1         1 L76       0.041401
     30  H2         40.6890    16.9590    14.9640 h1         1 L76       0.041401
     31  H3         44.0020    11.0170    16.8770 ha         1 L76       0.119698
     32  H4         43.5570     8.6410    17.3990 ha         1 L76       0.140838
     33  H5         41.3380     7.6510    16.9350 ha         1 L76       0.168227
     34  HN2        38.4970     9.4600    15.5920 hn         1 L76       0.349882
     35  HJ7        39.9190     6.9820    16.2720 h1         1 L76      -0.009945
     36  HJ8        38.0020     7.7110    17.7920 hc         1 L76       0.009293
     37  HJ9        36.9150     7.3800    16.4830 hc         1 L76       0.009293
     38 HJ10        38.7220     5.3950    17.9390 hc         1 L76      -0.018962
     39 HJ11        36.9920     5.4940    18.0130 hc         1 L76      -0.018962
     40 HJ12        37.4770     3.6400    16.6320 hc         1 L76      -0.025878
     41 HJ13        36.8730     4.8500    15.5400 hc         1 L76      -0.025878
     42 HJ14        39.8630     4.5620    16.0610 hc         1 L76      -0.025878
     43 HJ15        39.0850     3.4400    14.9990 hc         1 L76      -0.025878
     44 HJ16        40.2530     5.4930    13.9540 hc         1 L76      -0.018962
     45 HJ17        38.6830     5.0700    13.3570 hc         1 L76      -0.018962
     46 HJ18        37.6680     6.9890    14.2700 hc         1 L76       0.009293
     47 HJ19        39.2240     7.5510    13.7670 hc         1 L76       0.009293
     48  H6         40.0030    11.4700    15.3890 ha         1 L76       0.128642
@<TRIPOS>BOND
     1     1     2 1   
     2     2     3 1   
     3     2     4 1   
     4     4     5 1   
     5     4    29 1   
     6     4    30 1   
     7     5     6 1   
     8     6     7 1   
     9     6    25 2   
    10     7     8 1   
    11     7     9 2   
    12     9    10 1   
    13     9    24 1   
    14    10    11 ar  
    15    10    23 ar  
    16    11    12 ar  
    17    11    31 1   
    18    12    13 ar  
    19    12    32 1   
    20    13    14 ar  
    21    13    33 1   
    22    14    15 1   
    23    14    23 ar  
    24    15    16 1   
    25    15    34 1   
    26    16    17 1   
    27    16    22 1   
    28    16    35 1   
    29    17    18 1   
    30    17    36 1   
    31    17    37 1   
    32    18    19 1   
    33    18    38 1   
    34    18    39 1   
    35    19    20 1   
    36    19    40 1   
    37    19    41 1   
    38    20    21 1   
    39    20    42 1   
    40    20    43 1   
    41    21    22 1   
    42    21    44 1   
    43    21    45 1   
    44    22    46 1   
    45    22    47 1   
    46    23    48 1   
    47    24    25 1   
    48    25    26 1   
    49    26    27 1   
    50    26    28 1   
@<TRIPOS>SUBSTRUCTURE
     1 L76         1 TEMP              0 ****  ****    0 ROOT
