@<TRIPOS>MOLECULE
L3N
   44    47     1     0     0
SMALL
resp


@<TRIPOS>ATOM
      1 C1          11.7510    -2.1050     1.1750 c3         1 L3N      -0.257824
      2 N1          13.0750    -2.4190     0.6270 n          1 L3N      -0.098262
      3 C2          14.2390    -2.4820     1.2960 cz         1 L3N       0.642889
      4 N2          14.4010    -2.3330     2.6150 nh         1 L3N      -0.938749
      5 N3          15.2680    -2.7180     0.4810 nh         1 L3N      -0.376713
      6 C3          14.8340    -2.9710    -0.8900 c3         1 L3N      -0.397860
      7 C4          15.4350    -1.9350    -1.8790 ca         1 L3N       0.241248
      8 C5          15.9250    -2.2770    -3.1640 ca         1 L3N      -0.179323
      9 C6          16.4040    -1.2870    -4.0320 ca         1 L3N      -0.212434
     10 C7          16.3190     0.0690    -3.6780 ca         1 L3N      -0.076718
     11 C8          15.8040     0.4640    -2.4250 cp         1 L3N      -0.025846
     12 C9          15.5940     1.8950    -2.0970 cp         1 L3N       0.070499
     13 C10         15.2920     2.8270    -3.1190 ca         1 L3N      -0.151039
     14 C11         14.9800     4.1680    -2.8200 ca         1 L3N      -0.205020
     15 C12         14.9710     4.6060    -1.4850 ca         1 L3N      -0.019966
     16 C13         15.3020     3.7100    -0.4570 ca         1 L3N      -0.040819
     17 CL1         15.2990     4.2580     1.1790 cl         1 L3N      -0.101360
     18 C14         15.6140     2.3700    -0.7640 ca         1 L3N      -0.079352
     19 C15         15.4170    -0.5570    -1.5260 ca         1 L3N      -0.201630
     20 CM1         15.0320    -4.4910    -1.1330 ca         1 L3N       0.957892
     21 NM1         14.1930    -5.3340    -0.5180 nb         1 L3N      -0.708076
     22 CM2         14.3980    -6.6540    -0.6630 ca         1 L3N       0.424359
     23 CM3         15.4740    -7.1470    -1.4000 ca         1 L3N      -0.528338
     24 CM4         16.3280    -6.1960    -1.9580 ca         1 L3N       0.424359
     25 NM2         16.1150    -4.8880    -1.7940 nb         1 L3N      -0.708076
     26 C16         13.3290    -2.6540    -0.7570 c          1 L3N       0.593707
     27 O1          12.4700    -2.5730    -1.6460 o          1 L3N      -0.445803
     28 H1          10.9710    -2.6750     0.6660 h1         1 L3N       0.146941
     29 H2          11.7000    -2.3380     2.2390 h1         1 L3N       0.146941
     30 H3          11.5420    -1.0440     1.0340 h1         1 L3N       0.146941
     31 H4          15.3410    -2.3800     3.0110 hn         1 L3N       0.480181
     32 H5          16.2380    -2.8280     0.7730 hn         1 L3N       0.342426
     33 H6          15.9510    -3.2890    -3.5360 ha         1 L3N       0.188639
     34 H7          16.8060    -1.5770    -4.9910 ha         1 L3N       0.182510
     35 H8          16.6350     0.8050    -4.4000 ha         1 L3N       0.147922
     36 H9          15.2450     2.5040    -4.1480 ha         1 L3N       0.146521
     37 H10         14.7180     4.8560    -3.6100 ha         1 L3N       0.175141
     38 H11         14.7080     5.6280    -1.2480 ha         1 L3N       0.137245
     39 H12         15.8540     1.7020     0.0460 ha         1 L3N       0.123849
     40 H13         15.0130    -0.2650    -0.5700 ha         1 L3N       0.123082
     41 HM1         13.6950    -7.3190    -0.1840 h4         1 L3N       0.103693
     42 HM2         15.6330    -8.2070    -1.5230 ha         1 L3N       0.222349
     43 HM3         17.1960    -6.4810    -2.5300 h4         1 L3N       0.103693
     44 H14         13.6600    -2.0570     3.2580 hn         1 L3N       0.480181
@<TRIPOS>BOND
     1     1     2 1   
     2     1    28 1   
     3     1    29 1   
     4     1    30 1   
     5     2     3 2   
     6     2    26 1   
     7     3     4 1   
     8     3     5 1   
     9     4    31 1   
    10     4    44 1   
    11     5     6 1   
    12     5    32 1   
    13     6     7 1   
    14     6    20 1   
    15     6    26 1   
    16     7     8 ar  
    17     7    19 ar  
    18     8     9 ar  
    19     8    33 1   
    20     9    10 ar  
    21     9    34 1   
    22    10    11 ar  
    23    10    35 1   
    24    11    12 1   
    25    11    19 ar  
    26    12    13 ar  
    27    12    18 ar  
    28    13    14 ar  
    29    13    36 1   
    30    14    15 ar  
    31    14    37 1   
    32    15    16 ar  
    33    15    38 1   
    34    16    17 1   
    35    16    18 ar  
    36    18    39 1   
    37    19    40 1   
    38    20    21 ar  
    39    20    25 ar  
    40    21    22 ar  
    41    22    23 ar  
    42    22    41 1   
    43    23    24 ar  
    44    23    42 1   
    45    24    25 ar  
    46    24    43 1   
    47    26    27 2   
@<TRIPOS>SUBSTRUCTURE
     1 L3N         1 TEMP              0 ****  ****    0 ROOT
