@<TRIPOS>MOLECULE
2Z
   45    47     1     0     0
SMALL
resp


@<TRIPOS>ATOM
      1 C5          38.2630    36.7140    17.0130 ca         1 2Z      -0.508864
      2 C6          34.5450    34.9770    21.1830 c          1 2Z       0.634133
      3 C7          37.5970    36.1890    18.1370 ca         1 2Z       0.376897
      4 C8          34.0440    38.9760    23.7380 ca         1 2Z       1.091112
      5 C9          33.1560    38.9290    26.1330 c3         1 2Z       0.641332
      6 C10         34.8030    37.8110    21.4410 ca         1 2Z      -0.358865
      7 C11         35.2540    37.1250    20.2340 cc         1 2Z      -0.226440
      8 C12         37.6230    36.7430    15.7590 ca         1 2Z       0.456622
      9 C13         36.3270    36.2160    15.6230 ca         1 2Z      -0.399514
     10 C14         35.6720    35.6680    16.7400 ca         1 2Z      -0.145884
     11 C15         34.3070    37.0370    22.5110 ca         1 2Z       0.409510
     12 C16         34.8520    39.2090    21.6170 ca         1 2Z       0.443151
     13 C17         35.1650    35.7820    20.1250 cd         1 2Z       0.104744
     14 C18         36.2930    35.6640    18.0030 ca         1 2Z       0.151083
     15 C19         33.6690    34.8320    23.4620 c3         1 2Z      -0.264313
     16 F1          38.1960    36.1970    19.3280 f          1 2Z      -0.184385
     17 O2          35.6500    35.0620    19.0540 os         1 2Z      -0.321733
     18 N1          34.4790    39.7920    22.7770 nb         1 2Z      -0.844768
     19 O3          34.3290    33.7760    21.0230 o          1 2Z      -0.563139
     20 N2          34.2120    35.6180    22.3420 n          1 2Z      -0.133168
     21 N3          33.9310    37.6500    23.6560 nb         1 2Z      -0.611254
     22 N4          33.6720    39.5650    24.9270 nh         1 2Z      -0.881555
     23 CQ1         33.6130    37.5010    26.1620 c3         1 2Z      -0.500299
     24 CQ2         33.6750    39.6520    27.3410 c3         1 2Z       0.223411
     25 CQ3         31.6570    38.9820    26.1260 c3         1 2Z      -0.500299
     26 OQ1         35.0840    39.6020    27.3500 oh         1 2Z      -0.697477
     27 H9          39.2580    37.1160    17.1170 ha         1 2Z       0.247034
     28 H11         35.7030    37.7360    19.4670 ha         1 2Z       0.163290
     29 H12         35.8370    36.2250    14.6600 ha         1 2Z       0.216435
     30 H13         34.6920    35.2300    16.6230 ha         1 2Z       0.196370
     31 H14         35.2180    39.8560    20.8360 h4         1 2Z       0.096221
     32 H15         34.0540    35.1880    24.4180 h1         1 2Z       0.127218
     33 H16         32.5820    34.9190    23.4830 h1         1 2Z       0.127218
     34 H17         33.9200    33.7710    23.4230 h1         1 2Z       0.127218
     35 H18         33.7900    40.5680    24.9710 hn         1 2Z       0.396463
     36 HQ1         35.4160    40.0650    28.1230 ho         1 2Z       0.454524
     37 HQ2         33.3490    40.6920    27.3110 h1         1 2Z      -0.018445
     38 HQ3         33.2900    39.1770    28.2430 h1         1 2Z      -0.018445
     39 HQ4         31.2720    38.5070    27.0280 hc         1 2Z       0.117860
     40 HQ5         31.3300    40.0220    26.0950 hc         1 2Z       0.117860
     41 HQ6         31.2790    38.4570    25.2490 hc         1 2Z       0.117860
     42 HQ7         33.2330    37.0150    27.0610 hc         1 2Z       0.117860
     43 HQ8         33.2360    36.9810    25.2810 hc         1 2Z       0.117860
     44 HQ9         34.7020    37.4670    26.1650 hc         1 2Z       0.117860
     45 F2          38.2360    37.2740    14.7020 f          1 2Z      -0.212295
@<TRIPOS>BOND
     1     1     3 ar  
     2     1     8 ar  
     3     1    27 1   
     4     2    13 1   
     5     2    19 2   
     6     2    20 1   
     7     3    14 ar  
     8     3    16 1   
     9     4    18 ar  
    10     4    21 ar  
    11     4    22 1   
    12     5    22 1   
    13     5    23 1   
    14     5    24 1   
    15     5    25 1   
    16     6     7 1   
    17     6    11 ar  
    18     6    12 ar  
    19     7    13 2   
    20     7    28 1   
    21     8     9 ar  
    22     8    45 1   
    23     9    10 ar  
    24     9    29 1   
    25    10    14 ar  
    26    10    30 1   
    27    11    20 1   
    28    11    21 ar  
    29    12    18 ar  
    30    12    31 1   
    31    13    17 1   
    32    14    17 1   
    33    15    20 1   
    34    15    32 1   
    35    15    33 1   
    36    15    34 1   
    37    22    35 1   
    38    23    42 1   
    39    23    43 1   
    40    23    44 1   
    41    24    26 1   
    42    24    37 1   
    43    24    38 1   
    44    25    39 1   
    45    25    40 1   
    46    25    41 1   
    47    26    36 1   
@<TRIPOS>SUBSTRUCTURE
     1 2Z         1 TEMP              0 ****  ****    0 ROOT
