@<TRIPOS>MOLECULE
3FN
   46    49     1     0     0
SMALL
resp


@<TRIPOS>ATOM
      1 C1           31.620     38.950     26.150 c3         1 3FN      -0.337682
      2 C2           31.090     38.350     27.460 c3         1 3FN       0.268305
      3 C3           33.050     38.970     28.650 c3         1 3FN       0.268305
      4 C4           33.680     39.610     27.400 c3         1 3FN      -0.337682
      5 C5           38.260     36.710     17.010 ca         1 3FN      -0.509864
      6 O1           31.630     39.060     28.570 os         1 3FN      -0.462224
      7 C6           34.540     34.970     21.180 c          1 3FN       0.654785
      8 C7           37.590     36.180     18.130 ca         1 3FN       0.377134
      9 C8           34.040     38.970     23.730 ca         1 3FN       1.154872
     10 C9           33.150     38.920     26.130 c3         1 3FN       0.596995
     11 C10          34.800     37.810     21.440 ca         1 3FN      -0.406599
     12 C11          35.250     37.120     20.230 cc         1 3FN      -0.195567
     13 C12          37.620     36.740     15.750 ca         1 3FN       0.462492
     14 C13          36.320     36.210     15.620 ca         1 3FN      -0.401222
     15 C14          35.670     35.660     16.740 ca         1 3FN      -0.147824
     16 C15          34.300     37.030     22.510 ca         1 3FN       0.506196
     17 C16          34.850     39.200     21.610 ca         1 3FN       0.445002
     18 C17          35.160     35.780     20.120 cd         1 3FN       0.071652
     19 C18          36.290     35.660     18.000 ca         1 3FN       0.145564
     20 C19          33.660     34.830     23.460 c3         1 3FN      -0.226369
     21 F1           38.200     36.190     19.340 f          1 3FN      -0.182374
     22 F2           38.240     37.280     14.680 f          1 3FN      -0.213282
     23 O2           35.650     35.060     19.050 os         1 3FN      -0.311057
     24 N1           34.470     39.790     22.770 nb         1 3FN      -0.849506
     25 O3           34.320     33.770     21.020 o          1 3FN      -0.562736
     26 N2           34.210     35.610     22.340 n          1 3FN      -0.167286
     27 N3           33.930     37.650     23.650 nb         1 3FN      -0.700701
     28 N4           33.670     39.560     24.920 nh         1 3FN      -0.998503
     29 H1           31.220     38.400     25.300 hc         1 3FN       0.103441
     30 H2           31.270     39.980     26.050 hc         1 3FN       0.103441
     31 H3           30.010     38.430     27.500 h1         1 3FN       0.004158
     32 H4           31.340     37.290     27.540 h1         1 3FN       0.004158
     33 H5           33.360     37.930     28.760 h1         1 3FN       0.004158
     34 H6           33.380     39.500     29.540 h1         1 3FN       0.004158
     35 H7           33.420     40.670     27.390 hc         1 3FN       0.103441
     36 H8           34.760     39.540     27.450 hc         1 3FN       0.103441
     37 H9           39.250     37.110     17.110 ha         1 3FN       0.246700
     38 H10          33.480     37.720     26.150 h1         1 3FN      -0.040077
     39 H11          35.700     37.730     19.460 ha         1 3FN       0.160986
     40 H12          35.830     36.220     14.660 ha         1 3FN       0.217296
     41 H13          34.690     35.230     16.620 ha         1 3FN       0.197767
     42 H14          35.210     39.850     20.830 h4         1 3FN       0.099427
     43 H15          34.050     35.180     24.410 h1         1 3FN       0.113438
     44 H16          32.580     34.910     23.480 h1         1 3FN       0.113438
     45 H17          33.920     33.770     23.420 h1         1 3FN       0.113438
     46 H18          33.790     40.560     24.970 hn         1 3FN       0.406367
@<TRIPOS>BOND
     1     1     2 1   
     2     1    10 1   
     3     1    29 1   
     4     1    30 1   
     5     2     6 1   
     6     2    31 1   
     7     2    32 1   
     8     3     4 1   
     9     3     6 1   
    10     3    33 1   
    11     3    34 1   
    12     4    10 1   
    13     4    35 1   
    14     4    36 1   
    15     5     8 ar  
    16     5    13 ar  
    17     5    37 1   
    18     7    18 1   
    19     7    25 2   
    20     7    26 1   
    21     8    19 ar  
    22     8    21 1   
    23     9    24 ar  
    24     9    27 ar  
    25     9    28 1   
    26    10    28 1   
    27    10    38 1   
    28    11    12 1   
    29    11    16 ar  
    30    11    17 ar  
    31    12    18 2   
    32    12    39 1   
    33    13    14 ar  
    34    13    22 1   
    35    14    15 ar  
    36    14    40 1   
    37    15    19 ar  
    38    15    41 1   
    39    16    26 1   
    40    16    27 ar  
    41    17    24 ar  
    42    17    42 1   
    43    18    23 1   
    44    19    23 1   
    45    20    26 1   
    46    20    43 1   
    47    20    44 1   
    48    20    45 1   
    49    28    46 1   
@<TRIPOS>SUBSTRUCTURE
     1 3FN         1 TEMP              0 ****  ****    0 ROOT
