@<TRIPOS>MOLECULE
L41
   49    52     1     0     0
SMALL
resp


@<TRIPOS>ATOM
      1 O1           3.6190   -50.0260     7.1260 o          1 L41      -0.794214
      2 C1           2.9660   -49.0190     6.7700 c          1 L41       0.878684
      3 O2           3.5030   -47.8880     6.7190 o          1 L41      -0.794214
      4 C2           1.5380   -49.1780     6.4070 cc         1 L41       0.022532
      5 C3          -0.3290   -50.4690     6.1370 ca         1 L41       0.350728
      6 C4          -1.2910   -51.4980     6.0800 ca         1 L41      -0.354799
      7 C5          -2.6050   -51.1970     5.6650 ca         1 L41      -0.139624
      8 C6          -2.9390   -49.8760     5.3060 ca         1 L41      -0.214015
      9 C7          -1.9620   -48.8530     5.3590 ca         1 L41      -0.240431
     10 C8          -0.6370   -49.1250     5.7870 ca         1 L41       0.021809
     11 C9           0.5440   -48.3230     5.9850 cd         1 L41      -0.129939
     12 C10          0.6200   -46.8350     5.7940 c3         1 L41       0.137523
     13 C11          0.6540   -46.0390     7.1130 c3         1 L41      -0.057400
     14 C12         -0.2730   -46.5430     8.2490 c3         1 L41       0.243381
     15 O3          -1.1990   -45.5830     8.7170 os         1 L41      -0.474064
     16 C13         -2.4510   -45.6190     8.1600 ca         1 L41       0.427413
     17 C16         -3.5610   -45.8240     9.0090 ca         1 L41      -0.289618
     18 C15         -4.8670   -45.7980     8.4850 ca         1 L41      -0.268187
     19 C14         -5.0700   -45.5420     7.1160 ca         1 L41       0.386010
     20 C17         -3.9630   -45.3740     6.2630 ca         1 L41      -0.268187
     21 C18         -2.6590   -45.4010     6.7850 ca         1 L41      -0.289618
     22 H1          -1.0320   -52.5070     6.3510 ha         1 L41       0.170502
     23 H2          -3.3580   -51.9730     5.6230 ha         1 L41       0.122659
     24 H3          -3.9450   -49.6400     4.9830 ha         1 L41       0.124481
     25 H4          -2.2390   -47.8450     5.0910 ha         1 L41       0.161160
     26 H5          -0.2170   -46.4980     5.1780 hc         1 L41      -0.050450
     27 H6           1.5010   -46.5790     5.2020 hc         1 L41      -0.050450
     28 H7           0.4620   -44.9800     6.9170 hc         1 L41       0.050116
     29 H8           1.6840   -46.0610     7.4880 hc         1 L41       0.050116
     30 H9           0.3640   -46.7560     9.1140 h1         1 L41      -0.001165
     31 H10         -0.7800   -47.4840     8.0270 h1         1 L41      -0.001165
     32 H11         -3.4050   -45.9780    10.0670 ha         1 L41       0.183384
     33 H19         -1.8260   -45.2070     6.1300 ha         1 L41       0.183384
     34 H22         -4.1090   -45.1870     5.2110 ha         1 L41       0.179066
     35 H12         -5.7130   -45.9480     9.1400 ha         1 L41       0.179066
     36 N1           1.0070   -50.4490     6.4920 na         1 L41      -0.554964
     37 H            1.5850   -51.2220     6.7940 hn         1 L41       0.384967
     38 OK1         -6.3410   -45.4190     6.6160 os         1 L41      -0.477677
     39 CK1         -7.7340   -41.4740     6.7170 ca         1 L41      -0.254110
     40 CK2         -7.0300   -41.9320     5.5890 ca         1 L41      -0.063098
     41 CK3         -6.5720   -43.2670     5.5410 ca         1 L41      -0.347396
     42 CK4         -6.8370   -44.1370     6.6180 ca         1 L41       0.505749
     43 CK5         -7.5850   -43.6840     7.7220 ca         1 L41      -0.347396
     44 CK6         -8.0380   -42.3540     7.7680 ca         1 L41      -0.063098
     45 HK1         -8.0410   -40.4400     6.7740 ha         1 L41       0.144747
     46 HK2         -6.8350   -41.2580     4.7660 ha         1 L41       0.134555
     47 HK3         -6.0100   -43.6070     4.6860 ha         1 L41       0.174346
     48 HK4         -7.7910   -44.3540     8.5460 ha         1 L41       0.174346
     49 HK5         -8.5860   -42.0030     8.6390 ha         1 L41       0.134555
@<TRIPOS>BOND
     1     1     2 1   
     2     2     3 1   
     3     2     4 1   
     4     4    11 2   
     5     4    36 1   
     6     5     6 ar  
     7     5    10 ar  
     8     5    36 1   
     9     6     7 ar  
    10     6    22 1   
    11     7     8 ar  
    12     7    23 1   
    13     8     9 ar  
    14     8    24 1   
    15     9    10 ar  
    16     9    25 1   
    17    10    11 1   
    18    11    12 1   
    19    12    13 1   
    20    12    26 1   
    21    12    27 1   
    22    13    14 1   
    23    13    28 1   
    24    13    29 1   
    25    14    15 1   
    26    14    30 1   
    27    14    31 1   
    28    15    16 1   
    29    16    17 ar  
    30    16    21 ar  
    31    17    18 ar  
    32    17    32 1   
    33    18    19 ar  
    34    18    35 1   
    35    19    20 ar  
    36    19    38 1   
    37    20    21 ar  
    38    20    34 1   
    39    21    33 1   
    40    36    37 1   
    41    38    42 1   
    42    39    40 ar  
    43    39    44 ar  
    44    39    45 1   
    45    40    41 ar  
    46    40    46 1   
    47    41    42 ar  
    48    41    47 1   
    49    42    43 ar  
    50    43    44 ar  
    51    43    48 1   
    52    44    49 1   
@<TRIPOS>SUBSTRUCTURE
     1 L41         1 TEMP              0 ****  ****    0 ROOT
