@<TRIPOS>MOLECULE
3FY
   41    43     1     0     0
SMALL
resp


@<TRIPOS>ATOM
      1 C16         34.9080    39.1150    21.5910 ca         1 3FY       0.492838
      2 C15         34.0710    36.9990    22.3850 ca         1 3FY       0.535598
      3 N1          34.4450    39.7280    22.7020 nb         1 3FY      -0.880333
      4 C10         34.7550    37.7280    21.3920 ca         1 3FY      -0.447299
      5 C11         35.2950    37.0100    20.2460 cc         1 3FY      -0.184064
      6 C17         35.1390    35.6720    20.1250 cd         1 3FY       0.075833
      7 C6          34.3680    34.9100    21.1160 c          1 3FY       0.657995
      8 C8          33.8230    38.9510    23.5890 ca         1 3FY       1.130313
      9 CO1         32.6090    38.9830    25.8340 c3         1 3FY       0.659244
     10 CO2         33.0070    39.6250    27.1690 c3         1 3FY      -0.463357
     11 CO3         31.1040    39.1060    25.5750 c3         1 3FY      -0.463357
     12 C18         36.3550    35.5190    18.0590 ca         1 3FY       0.153142
     13 C14         35.7370    35.5450    16.7960 ca         1 3FY      -0.152521
     14 C13         36.4060    36.0920    15.6860 ca         1 3FY      -0.396169
     15 C12         37.7120    36.5910    15.8320 ca         1 3FY       0.453905
     16 C5          38.3550    36.5250    17.0830 ca         1 3FY      -0.501155
     17 C7          37.6740    36.0010    18.2000 ca         1 3FY       0.370484
     18 F2          38.3420    37.1500    14.7740 f          1 3FY      -0.212133
     19 F1          38.2870    35.9640    19.4060 f          1 3FY      -0.182418
     20 O2          35.6960    34.9290    19.1090 os         1 3FY      -0.316583
     21 O3          34.1460    33.7090    20.9620 o          1 3FY      -0.563826
     22 N2          33.9060    35.5870    22.2070 n          1 3FY      -0.185886
     23 C19         33.1840    34.8570    23.2620 c3         1 3FY      -0.219216
     24 N3          33.6030    37.6400    23.4790 nb         1 3FY      -0.704934
     25 N4          33.3560    39.5690    24.7300 nh         1 3FY      -0.932778
     26 H14         35.4260    39.7260    20.8690 h4         1 3FY       0.090192
     27 H11         35.8580    37.5900    19.5320 ha         1 3FY       0.156982
     28 HO1         32.8600    37.9240    25.9000 h1         1 3FY      -0.041579
     29 HO2         34.0800    39.5430    27.3440 hc         1 3FY       0.109281
     30 HO3         32.7420    40.6810    27.1970 hc         1 3FY       0.109281
     31 HO4         32.4990    39.1390    28.0020 hc         1 3FY       0.109281
     32 HO5         30.8130    38.5730    24.6690 hc         1 3FY       0.109281
     33 HO6         30.5300    38.6850    26.4010 hc         1 3FY       0.109281
     34 HO7         30.8110    40.1480    25.4520 hc         1 3FY       0.109281
     35 H13         34.7430    35.1440    16.6800 ha         1 3FY       0.198309
     36 H12         35.9140    36.1330    14.7270 ha         1 3FY       0.216475
     37 H9          39.3590    36.9030    17.1930 ha         1 3FY       0.245002
     38 H15         33.2500    33.7710    23.1970 h1         1 3FY       0.114296
     39 H16         33.5840    35.1190    24.2420 h1         1 3FY       0.114296
     40 H17         32.1270    35.1260    23.2470 h1         1 3FY       0.114296
     41 H18         33.5760    40.5520    24.8160 hn         1 3FY       0.412723
@<TRIPOS>BOND
     1     1     3 ar  
     2     1     4 ar  
     3     1    26 1   
     4     2     4 ar  
     5     2    22 1   
     6     2    24 ar  
     7     3     8 ar  
     8     4     5 1   
     9     5     6 2   
    10     5    27 1   
    11     6     7 1   
    12     6    20 1   
    13     7    21 2   
    14     7    22 1   
    15     8    24 ar  
    16     8    25 1   
    17     9    10 1   
    18     9    11 1   
    19     9    25 1   
    20     9    28 1   
    21    10    29 1   
    22    10    30 1   
    23    10    31 1   
    24    11    32 1   
    25    11    33 1   
    26    11    34 1   
    27    12    13 ar  
    28    12    17 ar  
    29    12    20 1   
    30    13    14 ar  
    31    13    35 1   
    32    14    15 ar  
    33    14    36 1   
    34    15    16 ar  
    35    15    18 1   
    36    16    17 ar  
    37    16    37 1   
    38    17    19 1   
    39    22    23 1   
    40    23    38 1   
    41    23    39 1   
    42    23    40 1   
    43    25    41 1   
@<TRIPOS>SUBSTRUCTURE
     1 3FY         1 TEMP              0 ****  ****    0 ROOT
