@<TRIPOS>MOLECULE
Lbq
   57    59     1     0     0
SMALL
resp


@<TRIPOS>ATOM
      1  S1         43.3230    13.7400    16.9530 ss         1 Lbq      -0.133420
      2  C4         43.2030    15.1930    15.9760 cc         1 Lbq      -0.078080
      3  C3         42.4450    14.9740    14.8480 cd         1 Lbq       0.199294
      4  C6         41.9770    13.6280    14.7760 cd         1 Lbq       0.060697
      5  C5         42.3480    12.8300    15.8280 cc         1 Lbq      -0.141307
      6  C7         43.9060    16.4430    16.4760 c          1 Lbq       0.812060
      7  O5         44.5240    16.3490    17.5600 o          1 Lbq      -0.766132
      8  O4         43.7740    17.4600    15.7590 o          1 Lbq      -0.766132
      9  C8         42.0530    11.4290    16.1130 ca         1 Lbq       0.170455
     10  C13        40.7750    10.8940    15.8360 ca         1 Lbq      -0.288314
     11  C12        40.4850     9.5420    16.1110 ca         1 Lbq       0.378857
     12  C11        41.4760     8.7110    16.6670 ca         1 Lbq      -0.300545
     13  C10        42.7530     9.2330    16.9460 ca         1 Lbq      -0.180715
     14  C9         43.0380    10.5840    16.6690 ca         1 Lbq      -0.147155
     15  BR1        40.9480    13.0400    13.2970 br         1 Lbq      -0.194865
     16  O3         42.2170    15.8800    13.8700 os         1 Lbq      -0.369403
     17  C2         41.2560    16.8860    14.1750 c3         1 Lbq       0.148335
     18  C1         40.9760    17.7600    12.9460 c          1 Lbq       0.964530
     19  O1         40.0380    17.4490    12.1780 o          1 Lbq      -0.875453
     20  O2         41.7120    18.7580    12.7910 o          1 Lbq      -0.875453
     21  N1         39.1900     9.0760    15.8170 nh         1 Lbq      -0.861901
     22  CK1        38.9260     7.6730    15.5740 c3         1 Lbq       0.363777
     23  CK2        37.4110     7.4350    15.4610 c3         1 Lbq      -0.263012
     24  CK3        37.0990     5.9650    15.1380 c3         1 Lbq       0.540034
     25  CX7        37.8320     5.5050    13.8670 c3         1 Lbq      -0.507607
     26  CK4        39.3470     5.7430    13.9800 c3         1 Lbq       0.540034
     27  CK5        39.6590     7.2130    14.3020 c3         1 Lbq      -0.263012
     28  CX0        35.5940     5.7760    14.9690 c3         1 Lbq      -0.440816
     29  CX1        37.5120     5.0840    16.3140 c3         1 Lbq      -0.440816
     30  CX2        40.0360     5.3370    12.6800 c3         1 Lbq      -0.440816
     31  CX3        39.9260     4.8450    15.0690 c3         1 Lbq      -0.440816
     32  H6         40.0220    11.5280    15.3920 ha         1 Lbq       0.259127
     33  H5         41.2790     7.6720    16.8840 ha         1 Lbq       0.157921
     34  H4         43.5200     8.5920    17.3560 ha         1 Lbq       0.133938
     35  H3         44.0250    10.9660    16.8790 ha         1 Lbq       0.115506
     36  H1         40.3170    16.4390    14.5070 h1         1 Lbq      -0.008650
     37  H2         41.6230    17.5200    14.9840 h1         1 Lbq      -0.008650
     38  HN2        38.6250     9.7030    15.2560 hn         1 Lbq       0.350717
     39 HK11        39.3170     7.1340    16.4370 h1         1 Lbq       0.023998
     40 HK21        36.9190     7.7250    16.3890 hc         1 Lbq       0.066554
     41 HK22        36.9970     8.0760    14.6820 hc         1 Lbq       0.066554
     42  HX1        37.6330     4.4490    13.6840 hc         1 Lbq       0.099544
     43  HX2        37.4410     6.0440    13.0040 hc         1 Lbq       0.099544
     44 HK52        39.3640     7.8430    13.4620 hc         1 Lbq       0.066554
     45 HK51        40.7330     7.3480    14.4230 hc         1 Lbq       0.066554
     46 HX15        35.3440     4.7450    14.7160 hc         1 Lbq       0.092374
     47 HX16        35.0530     6.0260    15.8810 hc         1 Lbq       0.092374
     48 HX17        35.1960     6.4080    14.1750 hc         1 Lbq       0.092374
     49 HX18        37.4370     4.0240    16.0680 hc         1 Lbq       0.092374
     50 HX19        38.5220     5.2720    16.6600 hc         1 Lbq       0.092374
     51 HX20        36.8720     5.2580    17.1810 hc         1 Lbq       0.092374
     52 HX21        41.1040     5.5540    12.7110 hc         1 Lbq       0.092374
     53 HX22        39.9230     4.2710    12.4800 hc         1 Lbq       0.092374
     54 HX23        39.6280     5.8670    11.8220 hc         1 Lbq       0.092374
     55 HX24        41.0120     4.8710    15.0470 hc         1 Lbq       0.092374
     56 HX25        39.6560     5.1480    16.0760 hc         1 Lbq       0.092374
     57 HX26        39.6250     3.8050    14.9420 hc         1 Lbq       0.092374
@<TRIPOS>BOND
     1     1     2 1   
     2     1     5 1   
     3     2     3 2   
     4     2     6 1   
     5     3     4 1   
     6     3    16 1   
     7     4     5 2   
     8     4    15 1   
     9     5     9 1   
    10     6     7 1   
    11     6     8 1   
    12     9    10 ar  
    13     9    14 ar  
    14    10    11 ar  
    15    10    32 1   
    16    11    12 ar  
    17    11    21 1   
    18    12    13 ar  
    19    12    33 1   
    20    13    14 ar  
    21    13    34 1   
    22    14    35 1   
    23    16    17 1   
    24    17    18 1   
    25    17    36 1   
    26    17    37 1   
    27    18    19 1   
    28    18    20 1   
    29    21    22 1   
    30    21    38 1   
    31    22    23 1   
    32    22    27 1   
    33    22    39 1   
    34    23    24 1   
    35    23    40 1   
    36    23    41 1   
    37    24    25 1   
    38    24    28 1   
    39    24    29 1   
    40    25    26 1   
    41    25    42 1   
    42    25    43 1   
    43    26    27 1   
    44    26    30 1   
    45    26    31 1   
    46    27    44 1   
    47    27    45 1   
    48    28    46 1   
    49    28    47 1   
    50    28    48 1   
    51    29    49 1   
    52    29    50 1   
    53    29    51 1   
    54    30    52 1   
    55    30    53 1   
    56    30    54 1   
    57    31    55 1   
    58    31    56 1   
    59    31    57 1   
@<TRIPOS>SUBSTRUCTURE
     1 Lbq         1 TEMP              0 ****  ****    0 ROOT
