@<TRIPOS>MOLECULE
L3J
   45    48     1     0     0
SMALL
resp


@<TRIPOS>ATOM
      1 C1          11.6960    -2.2640     1.2650 c3         1 L3J      -0.264146
      2 N1          13.0210    -2.5150     0.6890 n          1 L3J      -0.121397
      3 C2          14.1990    -2.5220     1.3340 cz         1 L3J       0.613919
      4 N2          14.3750    -2.3540     2.6490 nh         1 L3J      -0.887233
      5 N3          15.2240    -2.7250     0.5040 nh         1 L3J      -0.466511
      6 C3          14.7660    -3.0190    -0.8500 c3         1 L3J      -0.120096
      7 C4          15.3110    -1.9900    -1.8760 ca         1 L3J       0.029943
      8 C5          15.6770    -2.3430    -3.1990 ca         1 L3J      -0.137225
      9 C6          16.1750    -1.3670    -4.0760 ca         1 L3J      -0.180186
     10 C7          16.1930    -0.0120    -3.7020 ca         1 L3J      -0.095979
     11 C8          15.7280     0.4000    -2.4340 cp         1 L3J      -0.013666
     12 C9          15.5350     1.8410    -2.1140 cp         1 L3J       0.043224
     13 C10         15.2020     2.7620    -3.1390 ca         1 L3J      -0.141420
     14 C11         14.8790     4.1030    -2.8500 ca         1 L3J      -0.205350
     15 C12         14.8910     4.5600    -1.5220 ca         1 L3J      -0.019675
     16 C13         15.2550     3.6780    -0.4910 ca         1 L3J      -0.046386
     17 CL1         15.2850     4.2500     1.1370 cl         1 L3J      -0.098206
     18 C14         15.5760     2.3370    -0.7870 ca         1 L3J      -0.049936
     19 C15         15.3580    -0.6130    -1.5170 ca         1 L3J      -0.108571
     20 CI1         15.0380    -4.5320    -1.0580 ca         1 L3J       0.610970
     21 CI2         16.1910    -4.9950    -1.7180 ca         1 L3J      -0.456449
     22 CI3         16.4400    -6.3690    -1.8210 ca         1 L3J       0.115394
     23 CI4         15.5360    -7.2610    -1.2300 ca         1 L3J      -0.371128
     24 CI5         14.4410    -6.7310    -0.5350 ca         1 L3J       0.342026
     25 NI1         14.2060    -5.4080    -0.4360 nb         1 L3J      -0.662714
     26 C16         13.2560    -2.7590    -0.6950 c          1 L3J       0.608540
     27 O1          12.3800    -2.7350    -1.5720 o          1 L3J      -0.455735
     28 H1          11.6760    -2.5190     2.3230 h1         1 L3J       0.150526
     29 H2          11.4470    -1.2120     1.1460 h1         1 L3J       0.150526
     30 H3          10.9330    -2.8550     0.7590 h1         1 L3J       0.150526
     31 H4          15.3190    -2.3800     3.0340 hn         1 L3J       0.464640
     32 H5          16.2000    -2.8170     0.7850 hn         1 L3J       0.398788
     33 H6          15.6010    -3.3570    -3.5740 ha         1 L3J       0.149103
     34 H7          16.5120    -1.6640    -5.0570 ha         1 L3J       0.175371
     35 H8          16.5310     0.7130    -4.4280 ha         1 L3J       0.149258
     36 H9          15.1300     2.4280    -4.1640 ha         1 L3J       0.147126
     37 H10         14.5890     4.7790    -3.6410 ha         1 L3J       0.174922
     38 H11         14.6220     5.5820    -1.2920 ha         1 L3J       0.138184
     39 H12         15.8360     1.6820     0.0280 ha         1 L3J       0.107702
     40 H13         15.0130    -0.3140    -0.5390 ha         1 L3J       0.083772
     41 HI1         16.8850    -4.2980    -2.1490 ha         1 L3J       0.205928
     42 HI2         17.3210    -6.7170    -2.3300 ha         1 L3J       0.145395
     43 HI3         15.6890    -8.3290    -1.2780 ha         1 L3J       0.194548
     44 HI4         13.7480    -7.3820    -0.0240 h4         1 L3J       0.087039
     45 H14         13.6330    -2.0840     3.2910 hn         1 L3J       0.464640
@<TRIPOS>BOND
     1     1     2 1   
     2     1    28 1   
     3     1    29 1   
     4     1    30 1   
     5     2     3 2   
     6     2    26 1   
     7     3     4 1   
     8     3     5 1   
     9     4    31 1   
    10     4    45 1   
    11     5     6 1   
    12     5    32 1   
    13     6     7 1   
    14     6    20 1   
    15     6    26 1   
    16     7     8 ar  
    17     7    19 ar  
    18     8     9 ar  
    19     8    33 1   
    20     9    10 ar  
    21     9    34 1   
    22    10    11 ar  
    23    10    35 1   
    24    11    12 1   
    25    11    19 ar  
    26    12    13 ar  
    27    12    18 ar  
    28    13    14 ar  
    29    13    36 1   
    30    14    15 ar  
    31    14    37 1   
    32    15    16 ar  
    33    15    38 1   
    34    16    17 1   
    35    16    18 ar  
    36    18    39 1   
    37    19    40 1   
    38    20    21 ar  
    39    20    25 ar  
    40    21    22 ar  
    41    21    41 1   
    42    22    23 ar  
    43    22    42 1   
    44    23    24 ar  
    45    23    43 1   
    46    24    25 ar  
    47    24    44 1   
    48    26    27 2   
@<TRIPOS>SUBSTRUCTURE
     1 L3J         1 TEMP              0 ****  ****    0 ROOT
