@<TRIPOS>MOLECULE
3FK
   46    49     1     0     0
SMALL
resp


@<TRIPOS>ATOM
      1 C7          37.4500    36.1830    18.1490 ca         1 3FK      0.379741
      2 C5          38.1700    36.6860    17.0470 ca         1 3FK     -0.511104
      3 C19         33.9960    34.9420    23.6440 c3         1 3FK     -0.197693
      4 C13         36.1720    36.5210    15.6620 ca         1 3FK     -0.395991
      5 C16         34.9650    39.3390    21.6760 ca         1 3FK      0.436839
      6 CZ3         33.7550    39.0890    26.3360 c3         1 3FK      0.824228
      7 CZ4         32.2220    39.1950    26.4390 c3         1 3FK     -0.754115
      8 C8          34.4640    39.1130    23.8850 ca         1 3FK      1.091441
      9 C6          34.5800    35.1100    21.2890 c          1 3FK      0.644035
     10 C17         35.0710    35.9160    20.1640 cc         1 3FK      0.124162
     11 C11         35.1770    37.2590    20.2660 cd         1 3FK     -0.231779
     12 C18         36.0950    35.8170    17.9990 ca         1 3FK      0.154538
     13 C14         35.4580    36.0030    16.7580 ca         1 3FK     -0.148119
     14 C10         34.8890    37.9410    21.5160 ca         1 3FK     -0.360424
     15 C15         34.5410    37.1690    22.6420 ca         1 3FK      0.428782
     16 N4          34.2340    39.7080    25.1060 nh         1 3FK     -1.000188
     17 C12         37.5310    36.8530    15.8040 ca         1 3FK      0.454840
     18 F2          38.2120    37.3540    14.7470 f          1 3FK     -0.211464
     19 F1          38.0540    36.0750    19.3540 f          1 3FK     -0.186689
     20 O2          35.4040    35.2190    19.0260 os         1 3FK     -0.326990
     21 O3          34.3340    33.9110    21.1620 o          1 3FK     -0.560255
     22 N2          34.4050    35.7500    22.4820 n          1 3FK     -0.171418
     23 N3          34.3410    37.7870    23.8260 nb         1 3FK     -0.600421
     24 N1          34.7560    39.9270    22.8720 nb         1 3FK     -0.837563
     25 CZ2         34.4410    39.7230    27.5520 c3         1 3FK     -0.414468
     26 NZ1         31.5340    38.4190    25.4200 na         1 3FK      0.849038
     27 NZ2         30.8990    38.9810    24.3740 nc         1 3FK     -0.646972
     28 CZ1         30.4890    37.8870    23.7530 cd         1 3FK      0.467651
     29 NZ3         30.8480    36.7260    24.3690 nd         1 3FK     -0.426277
     30 NZ4         31.4960    37.0720    25.4320 nc         1 3FK     -0.268763
     31 H9          39.2050    36.9660    17.1640 ha         1 3FK      0.247927
     32 H15         34.2100    35.4190    24.5990 h1         1 3FK      0.112104
     33 H16         32.9240    34.7450    23.6050 h1         1 3FK      0.112104
     34 H17         34.5130    33.9820    23.6760 h1         1 3FK      0.112104
     35 H12         35.6790    36.6640    14.7140 ha         1 3FK      0.216207
     36 H14         35.2220    39.9820    20.8480 h4         1 3FK      0.101002
     37 HZ1         34.0320    38.0350    26.3320 h1         1 3FK     -0.100955
     38 HZ2         31.8880    38.8320    27.4110 h1         1 3FK      0.211563
     39 HZ3         31.9110    40.2360    26.3610 h1         1 3FK      0.211563
     40 H11         35.5210    37.8680    19.4460 ha         1 3FK      0.160766
     41 H13         34.4190    35.7470    16.6440 ha         1 3FK      0.195896
     42 H18         34.3200    40.7150    25.1240 hn         1 3FK      0.421065
     43 HZ4         35.5260    39.6670    27.4620 hc         1 3FK      0.104343
     44 HZ5         34.1650    40.7720    27.6670 hc         1 3FK      0.104343
     45 HZ6         34.1600    39.2060    28.4700 hc         1 3FK      0.104343
     46 HZ7         29.9080    37.9180    22.8450 h5         1 3FK      0.081024
@<TRIPOS>BOND
     1     1     2 ar  
     2     1    12 ar  
     3     1    19 1   
     4     2    17 ar  
     5     2    31 1   
     6     3    22 1   
     7     3    32 1   
     8     3    33 1   
     9     3    34 1   
    10     4    13 ar  
    11     4    17 ar  
    12     4    35 1   
    13     5    14 ar  
    14     5    24 ar  
    15     5    36 1   
    16     6     7 1   
    17     6    16 1   
    18     6    25 1   
    19     6    37 1   
    20     7    26 1   
    21     7    38 1   
    22     7    39 1   
    23     8    16 1   
    24     8    23 ar  
    25     8    24 ar  
    26     9    10 1   
    27     9    21 2   
    28     9    22 1   
    29    10    11 2   
    30    10    20 1   
    31    11    14 1   
    32    11    40 1   
    33    12    13 ar  
    34    12    20 1   
    35    13    41 1   
    36    14    15 ar  
    37    15    22 1   
    38    15    23 ar  
    39    16    42 1   
    40    17    18 1   
    41    25    43 1   
    42    25    44 1   
    43    25    45 1   
    44    26    27 1   
    45    26    30 1   
    46    27    28 2   
    47    28    29 1   
    48    28    46 1   
    49    29    30 2   
@<TRIPOS>SUBSTRUCTURE
     1 3FK         1 TEMP              0 ****  ****    0 ROOT
