@<TRIPOS>MOLECULE
L7A
   43    46     1     0     0
SMALL
resp


@<TRIPOS>ATOM
      1 C1          11.7270    -2.5840     1.3300 c3         1 L7A      -0.286886
      2 N1          13.0530    -2.6450     0.7060 n          1 L7A      -0.085722
      3 C2          14.2320    -2.5930     1.3460 cz         1 L7A       0.756475
      4 N2          14.4070    -2.4120     2.6580 nh         1 L7A      -0.969580
      5 N3          15.2570    -2.7750     0.5130 nh         1 L7A      -0.602075
      6 C3          14.8120    -3.0760    -0.8430 c3         1 L7A      -0.152087
      7 C4          15.3590    -2.0160    -1.8430 ca         1 L7A       0.137076
      8 C5          16.0190    -2.3190    -3.0600 ca         1 L7A      -0.090663
      9 C6          16.4380    -1.2950    -3.9240 ca         1 L7A      -0.243067
     10 C7          16.1810     0.0500    -3.6170 ca         1 L7A      -0.056664
     11 C8          15.5430     0.4050    -2.4120 cp         1 L7A      -0.006325
     12 C9          15.2160     1.8210    -2.1140 cp         1 L7A      -0.021808
     13 C14         15.3570     2.3670    -0.8160 ca         1 L7A      -0.030737
     14 C13         14.9850     3.7010    -0.5360 ca         1 L7A      -0.113349
     15 CL1         15.1550     4.3440     1.0550 cl         1 L7A      -0.065253
     16 C12         14.4610     4.5130    -1.5550 ca         1 L7A       0.096326
     17 C11         14.3210     3.9930    -2.8520 ca         1 L7A      -0.113349
     18 CL2         13.6520     4.9770    -4.0970 cl         1 L7A      -0.065253
     19 C10         14.7050     2.6650    -3.1280 ca         1 L7A      -0.030737
     20 C15         15.1680    -0.6370    -1.5330 ca         1 L7A      -0.145325
     21 CA1         15.0320    -4.5980    -1.0300 cx         1 L7A      -0.096822
     22 CA2         14.8680    -5.3410    -2.3310 cx         1 L7A      -0.250217
     23 CA3         16.2130    -5.2990    -1.6570 cx         1 L7A      -0.250217
     24 C16         13.2930    -2.8880    -0.6770 c          1 L7A       0.514704
     25 O1          12.4120    -2.9820    -1.5390 o          1 L7A      -0.432217
     26 H1          11.4700    -3.5570     1.7450 h1         1 L7A       0.154840
     27 H2          11.7370    -1.8710     2.1440 h1         1 L7A       0.154840
     28 H3          10.9530    -2.2900     0.6210 h1         1 L7A       0.154840
     29 H4          13.6640    -2.1500     3.3040 hn         1 L7A       0.481810
     30 H5          16.2400    -2.7840     0.7870 hn         1 L7A       0.444039
     31 H6          16.2290    -3.3150    -3.3990 ha         1 L7A       0.159837
     32 H7          16.9460    -1.5530    -4.8430 ha         1 L7A       0.187818
     33 H8          16.4790     0.8090    -4.3260 ha         1 L7A       0.154593
     34 H12         15.7510     1.7580    -0.0170 ha         1 L7A       0.121943
     35 H11         14.1590     5.5300    -1.3430 ha         1 L7A       0.121371
     36 H9          14.5640     2.2800    -4.1280 ha         1 L7A       0.121943
     37 H13         14.6630    -0.3620    -0.6210 ha         1 L7A       0.104571
     38 HA1         14.6220    -5.1530    -0.1850 hc         1 L7A       0.161481
     39 HA2         14.3020    -6.2720    -2.3060 hc         1 L7A       0.149509
     40 HA3         14.7450    -4.7530    -3.2260 hc         1 L7A       0.149509
     41 HA4         16.9720    -4.7220    -2.1490 hc         1 L7A       0.149509
     42 HA5         16.5740    -6.2030    -1.1700 hc         1 L7A       0.149509
     43 H14         15.3570    -2.4020     3.0360 hn         1 L7A       0.481810
@<TRIPOS>BOND
     1     1     2 1   
     2     1    26 1   
     3     1    27 1   
     4     1    28 1   
     5     2     3 2   
     6     2    24 1   
     7     3     4 1   
     8     3     5 1   
     9     4    29 1   
    10     4    43 1   
    11     5     6 1   
    12     5    30 1   
    13     6     7 1   
    14     6    21 1   
    15     6    24 1   
    16     7     8 ar  
    17     7    20 ar  
    18     8     9 ar  
    19     8    31 1   
    20     9    10 ar  
    21     9    32 1   
    22    10    11 ar  
    23    10    33 1   
    24    11    12 1   
    25    11    20 ar  
    26    12    13 ar  
    27    12    19 ar  
    28    13    14 ar  
    29    13    34 1   
    30    14    15 1   
    31    14    16 ar  
    32    16    17 ar  
    33    16    35 1   
    34    17    18 1   
    35    17    19 ar  
    36    19    36 1   
    37    20    37 1   
    38    21    22 1   
    39    21    23 1   
    40    21    38 1   
    41    22    23 1   
    42    22    39 1   
    43    22    40 1   
    44    23    41 1   
    45    23    42 1   
    46    24    25 2   
@<TRIPOS>SUBSTRUCTURE
     1 L7A         1 TEMP              0 ****  ****    0 ROOT
