@<TRIPOS>MOLECULE
L30
   41    42     1     0     0
SMALL
resp


@<TRIPOS>ATOM
      1  C1        24.0210    12.2420    30.2760 c3         1 L30      -0.333157
      2  C2        23.2930    10.9220    30.5380 c3         1 L30       0.417416
      3  O1        22.1430    11.2080    31.3310 os         1 L30      -0.460766
      4  C3        21.3310    10.1710    31.7580 ca         1 L30       0.904727
      5  N1        21.6810     8.9090    31.3860 nb         1 L30      -0.816412
      6  C4        20.8900     7.8930    31.7600 ca         1 L30       0.786025
      7  C5        19.7540     8.0600    32.5350 ca         1 L30      -0.839388
      8  C6        19.4030     9.3420    32.9180 ca         1 L30       0.780863
      9  N2        18.2460     9.4400    33.6790 nh         1 L30      -0.968369
     10  C7        20.1940    10.4360    32.5290 ca         1 L30      -0.704256
     11  C8        19.8750    11.8150    32.8830 cg         1 L30       0.516577
     12  N3        19.6300    12.9120    33.1600 n1         1 L30      -0.535887
     13  N4        21.3870     6.6850    31.3200 n          1 L30      -0.603677
     14  C9        20.7630     5.5180    31.1290 c          1 L30       0.821497
     15  O2        19.5490     5.3720    31.2620 o          1 L30      -0.627550
     16  C10       21.6080     4.3050    30.7110 c3         1 L30      -0.402629
     17  C11       23.1030     4.5840    30.5580 ca         1 L30       0.182909
     18  C16       24.0150     4.0450    31.4690 ca         1 L30      -0.204222
     19  C15       25.3760     4.3280    31.3490 ca         1 L30      -0.273785
     20  C14       25.8350     5.1530    30.3200 ca         1 L30       0.269443
     21 C341       27.3130     5.4670    30.1980 c3         1 L30      -0.381418
     22  C13       24.9280     5.6840    29.4010 ca         1 L30      -0.273785
     23  C12       23.5680     5.4010    29.5200 ca         1 L30      -0.204222
     24  H1        24.9130    12.0840    29.6700 hc         1 L30       0.089512
     25  H2        23.3750    12.9400    29.7440 hc         1 L30       0.089512
     26  H3        24.3250    12.7140    31.2100 hc         1 L30       0.089512
     27  H4        22.9980    10.4590    29.5940 h1         1 L30      -0.018344
     28  H5        23.9580    10.2280    31.0570 h1         1 L30      -0.018344
     29  H6        19.1530     7.2180    32.8350 ha         1 L30       0.318219
     30  H7        17.7760     8.5960    33.9950 hn         1 L30       0.430025
     31  H8        17.8730    10.3510    33.9370 hn         1 L30       0.430025
     32  H9        22.3720     6.7300    31.1260 hn         1 L30       0.287785
     33  H10       21.4430     3.5140    31.4420 hc         1 L30       0.130859
     34  H11       21.2200     3.9320    29.7670 hc         1 L30       0.130859
     35  H16       23.6740     3.4070    32.2730 ha         1 L30       0.158229
     36  H15       26.0730     3.9080    32.0600 ha         1 L30       0.171299
     37 H341       27.8100     4.7110    29.5900 hc         1 L30       0.110463
     38 H342       27.4730     6.4410    29.7320 hc         1 L30       0.110463
     39 H343       27.7940     5.4910    31.1770 hc         1 L30       0.110463
     40  H13       25.2770     6.3170    28.5970 ha         1 L30       0.171299
     41  H12       22.8720     5.8250    28.8100 ha         1 L30       0.158229
@<TRIPOS>BOND
     1     1     2 1   
     2     1    24 1   
     3     1    25 1   
     4     1    26 1   
     5     2     3 1   
     6     2    27 1   
     7     2    28 1   
     8     3     4 1   
     9     4     5 ar  
    10     4    10 ar  
    11     5     6 ar  
    12     6     7 ar  
    13     6    13 1   
    14     7     8 ar  
    15     7    29 1   
    16     8     9 1   
    17     8    10 ar  
    18     9    30 1   
    19     9    31 1   
    20    10    11 1   
    21    11    12 3   
    22    13    14 1   
    23    13    32 1   
    24    14    15 2   
    25    14    16 1   
    26    16    17 1   
    27    16    33 1   
    28    16    34 1   
    29    17    18 ar  
    30    17    23 ar  
    31    18    19 ar  
    32    18    35 1   
    33    19    20 ar  
    34    19    36 1   
    35    20    21 1   
    36    20    22 ar  
    37    21    37 1   
    38    21    38 1   
    39    21    39 1   
    40    22    23 ar  
    41    22    40 1   
    42    23    41 1   
@<TRIPOS>SUBSTRUCTURE
     1 L30         1 TEMP              0 ****  ****    0 ROOT
