@<TRIPOS>MOLECULE
L33
   42    43     1     0     0
SMALL
resp


@<TRIPOS>ATOM
      1  C1        24.0390    12.2180    30.2670 c3         1 L33      -0.367086
      2  C2        23.3040    10.9020    30.5330 c3         1 L33       0.428363
      3  O1        22.1560    11.1950    31.3260 os         1 L33      -0.461949
      4  C3        21.3390    10.1630    31.7540 ca         1 L33       0.902395
      5  N1        21.6820     8.8990    31.3840 nb         1 L33      -0.824283
      6  C4        20.8870     7.8880    31.7600 ca         1 L33       0.798176
      7  C5        19.7520     8.0620    32.5360 ca         1 L33      -0.833602
      8  C6        19.4080     9.3450    32.9170 ca         1 L33       0.773846
      9  N2        18.2520     9.4490    33.6800 nh         1 L33      -0.966725
     10  C7        20.2030    10.4350    32.5260 ca         1 L33      -0.699378
     11  C8        19.8910    11.8150    32.8790 cg         1 L33       0.516194
     12  N3        19.6510    12.9140    33.1550 n1         1 L33      -0.536095
     13  N4        21.3750     6.6760    31.3200 n          1 L33      -0.618687
     14  C9        20.7390     5.5160    31.1260 c          1 L33       0.814294
     15  O2        19.5240     5.3830    31.2540 o          1 L33      -0.626706
     16  C10       21.5740     4.2930    30.7140 c3         1 L33      -0.424674
     17  C11       23.0750     4.5500    30.5850 ca         1 L33       0.110876
     18  C16       23.9620     4.0060    31.5180 ca         1 L33      -0.154827
     19  C15       25.3280     4.2680    31.4150 ca         1 L33      -0.348924
     20  C14       25.8300     5.0670    30.3880 ca         1 L33       0.486959
     21  C13       24.9360     5.6030    29.4480 ca         1 L33      -0.348924
     22  C12       23.5700     5.3480    29.5480 ca         1 L33      -0.154827
     23  O24       27.1930     5.2760    30.3820 os         1 L33      -0.393734
     24 C241       27.7620     6.0800    29.3510 c3         1 L33       0.041320
     25  H1        24.9290    12.0530    29.6610 hc         1 L33       0.098079
     26  H2        23.3960    12.9170    29.7320 hc         1 L33       0.098079
     27  H3        24.3450    12.6920    31.1990 hc         1 L33       0.098079
     28  H4        23.0080    10.4370    29.5900 h1         1 L33      -0.016476
     29  H5        23.9670    10.2070    31.0550 h1         1 L33      -0.016476
     30  H6        19.1470     7.2230    32.8380 ha         1 L33       0.315961
     31  H7        17.7770     8.6080    33.9940 hn         1 L33       0.429639
     32  H8        17.8830    10.3620    33.9350 hn         1 L33       0.429639
     33  H9        22.3610     6.7130    31.1320 hn         1 L33       0.298417
     34  H10       21.3860     3.5000    31.4380 hc         1 L33       0.143280
     35  H11       21.1950     3.9320    29.7610 hc         1 L33       0.143280
     36  H16       23.5980     3.3830    32.3230 ha         1 L33       0.162218
     37  H15       26.0140     3.8530    32.1380 ha         1 L33       0.179192
     38  H13       25.2870     6.2230    28.6360 ha         1 L33       0.179192
     39  H12       22.8910     5.7770    28.8220 ha         1 L33       0.162218
     40 H241       28.8350     6.1760    29.5200 h1         1 L33       0.061226
     41 H242       27.6210     5.6290    28.3680 h1         1 L33       0.061226
     42 H243       27.3420     7.0880    29.3410 h1         1 L33       0.061226
@<TRIPOS>BOND
     1     1     2 1   
     2     1    25 1   
     3     1    26 1   
     4     1    27 1   
     5     2     3 1   
     6     2    28 1   
     7     2    29 1   
     8     3     4 1   
     9     4     5 ar  
    10     4    10 ar  
    11     5     6 ar  
    12     6     7 ar  
    13     6    13 1   
    14     7     8 ar  
    15     7    30 1   
    16     8     9 1   
    17     8    10 ar  
    18     9    31 1   
    19     9    32 1   
    20    10    11 1   
    21    11    12 3   
    22    13    14 1   
    23    13    33 1   
    24    14    15 2   
    25    14    16 1   
    26    16    17 1   
    27    16    34 1   
    28    16    35 1   
    29    17    18 ar  
    30    17    22 ar  
    31    18    19 ar  
    32    18    36 1   
    33    19    20 ar  
    34    19    37 1   
    35    20    21 ar  
    36    20    23 1   
    37    21    22 ar  
    38    21    38 1   
    39    22    39 1   
    40    23    24 1   
    41    24    40 1   
    42    24    41 1   
    43    24    42 1   
@<TRIPOS>SUBSTRUCTURE
     1 L33         1 TEMP              0 ****  ****    0 ROOT
