@<TRIPOS>MOLECULE
L4P
   45    48     1     0     0
SMALL
resp


@<TRIPOS>ATOM
      1 C1          11.7150    -2.1700     1.1860 c3         1 L4P      -0.240433
      2 N1          13.0470    -2.4710     0.6540 n          1 L4P      -0.126433
      3 C2          14.2070    -2.4900     1.3300 cz         1 L4P       0.710483
      4 N2          14.3600    -2.2950     2.6440 nh         1 L4P      -0.953947
      5 N3          15.2420    -2.7550     0.5320 nh         1 L4P      -0.469777
      6 C3          14.8170    -3.0610    -0.8290 c3         1 L4P      -0.230673
      7 CO1         15.0770    -4.5790    -1.0200 ca         1 L4P       0.104481
      8 CO2         14.2710    -5.5610    -0.3780 ca         1 L4P      -0.176939
      9 CO3         14.5690    -6.9360    -0.4680 ca         1 L4P      -0.141982
     10 CO4         15.6910    -7.3650    -1.1930 ca         1 L4P      -0.085669
     11 CO5         16.5200    -6.4110    -1.8040 ca         1 L4P      -0.141982
     12 CO6         16.2190    -5.0420    -1.7030 ca         1 L4P      -0.176939
     13 C4          15.3780    -2.0330    -1.8470 ca         1 L4P       0.233580
     14 C5          15.7360    -2.3800    -3.1720 ca         1 L4P      -0.222277
     15 C6          16.2340    -1.4070    -4.0510 ca         1 L4P      -0.178209
     16 C7          16.2510    -0.0550    -3.6770 ca         1 L4P      -0.051250
     17 C8          15.7990     0.3580    -2.4050 cp         1 L4P      -0.060543
     18 C9          15.6220     1.8010    -2.0870 cp         1 L4P      -0.203543
     19 C10         15.3730     2.7530    -3.1060 ca         1 L4P       0.371047
     20 N11         15.0850     4.0530    -2.8900 nb         1 L4P      -0.655159
     21 C12         15.0310     4.4850    -1.6170 ca         1 L4P       0.515067
     22 C13         15.2980     3.6530    -0.5190 ca         1 L4P      -0.356558
     23 CL1         15.2310     4.2780     1.0890 cl         1 L4P      -0.058953
     24 C14         15.6050     2.3020    -0.7650 ca         1 L4P       0.211790
     25 C15         15.4330    -0.6570    -1.4880 ca         1 L4P      -0.155375
     26 C16         13.3070    -2.7860    -0.7110 c          1 L4P       0.567594
     27 O1          12.4450    -2.8370    -1.5960 o          1 L4P      -0.440534
     28 H1          11.5250    -1.1040     1.0820 h1         1 L4P       0.144224
     29 H2          10.9390    -2.7030     0.6370 h1         1 L4P       0.144224
     30 H3          11.6390    -2.4490     2.2400 h1         1 L4P       0.144224
     31 H4          15.2990    -2.3280     3.0410 hn         1 L4P       0.478770
     32 H5          16.2150    -2.8180     0.8300 hn         1 L4P       0.395822
     33 HO2         13.4190    -5.2900     0.2240 ha         1 L4P       0.160321
     34 HO3         13.9460    -7.6600     0.0350 ha         1 L4P       0.162679
     35 HO4         15.9300    -8.4170    -1.2500 ha         1 L4P       0.152526
     36 HO5         17.4130    -6.7100    -2.3270 ha         1 L4P       0.162679
     37 HO6         16.9010    -4.3390    -2.1390 ha         1 L4P       0.160321
     38 H6          15.6490    -3.3890    -3.5500 ha         1 L4P       0.198247
     39 H7          16.5690    -1.6940    -5.0380 ha         1 L4P       0.179233
     40 H8          16.5830     0.6670    -4.4090 ha         1 L4P       0.140597
     41 H9          15.3360     2.4540    -4.1430 h4         1 L4P       0.071067
     42 H11         14.7750     5.5230    -1.4710 h4         1 L4P       0.053659
     43 H12         15.8110     1.6510     0.0680 ha         1 L4P       0.091455
     44 H13         15.0960    -0.3620    -0.5080 ha         1 L4P       0.094314
     45 H14         13.6150    -2.0120     3.2790 hn         1 L4P       0.478770
@<TRIPOS>BOND
     1     1     2 1   
     2     1    28 1   
     3     1    29 1   
     4     1    30 1   
     5     2     3 2   
     6     2    26 1   
     7     3     4 1   
     8     3     5 1   
     9     4    31 1   
    10     4    45 1   
    11     5     6 1   
    12     5    32 1   
    13     6     7 1   
    14     6    13 1   
    15     6    26 1   
    16     7     8 ar  
    17     7    12 ar  
    18     8     9 ar  
    19     8    33 1   
    20     9    10 ar  
    21     9    34 1   
    22    10    11 ar  
    23    10    35 1   
    24    11    12 ar  
    25    11    36 1   
    26    12    37 1   
    27    13    14 ar  
    28    13    25 ar  
    29    14    15 ar  
    30    14    38 1   
    31    15    16 ar  
    32    15    39 1   
    33    16    17 ar  
    34    16    40 1   
    35    17    18 1   
    36    17    25 ar  
    37    18    19 ar  
    38    18    24 ar  
    39    19    20 ar  
    40    19    41 1   
    41    20    21 ar  
    42    21    22 ar  
    43    21    42 1   
    44    22    23 1   
    45    22    24 ar  
    46    24    43 1   
    47    25    44 1   
    48    26    27 2   
@<TRIPOS>SUBSTRUCTURE
     1 L4P         1 TEMP              0 ****  ****    0 ROOT
