@<TRIPOS>MOLECULE
2K
   43    46     1     0     0
SMALL
resp


@<TRIPOS>ATOM
      1 C5          38.2630    36.7140    17.0130 ca         1 2K      -0.509624
      2 C6          34.5450    34.9770    21.1830 c          1 2K       0.771656
      3 C7          37.5970    36.1890    18.1370 ca         1 2K       0.379050
      4 C8          34.0440    38.9760    23.7380 ca         1 2K       1.183019
      5 C10         34.8030    37.8110    21.4410 ca         1 2K      -0.425902
      6 C11         35.2540    37.1250    20.2340 cc         1 2K      -0.189297
      7 C12         37.6230    36.7430    15.7590 ca         1 2K       0.457553
      8 C13         36.3270    36.2160    15.6230 ca         1 2K      -0.400535
      9 C14         35.6720    35.6680    16.7400 ca         1 2K      -0.143167
     10 C15         34.3070    37.0370    22.5110 ca         1 2K       0.746465
     11 C16         34.8520    39.2090    21.6170 ca         1 2K       0.416707
     12 C17         35.1650    35.7820    20.1250 cd         1 2K       0.104428
     13 C18         36.2930    35.6640    18.0030 ca         1 2K       0.153320
     14 F1          38.1960    36.1970    19.3280 f          1 2K      -0.185915
     15 O2          35.6500    35.0620    19.0540 os         1 2K      -0.332782
     16 N1          34.4790    39.7920    22.7770 nb         1 2K      -0.849053
     17 O3          34.3290    33.7760    21.0230 o          1 2K      -0.589693
     18 N2          34.2120    35.6180    22.3420 n          1 2K      -0.685034
     19 N3          33.9310    37.6500    23.6560 nb         1 2K      -0.829485
     20 N4          33.6720    39.5650    24.9270 nh         1 2K      -0.990544
     21 H           33.8400    35.0790    23.1100 hn         1 2K       0.396646
     22 H9          39.2580    37.1160    17.1170 ha         1 2K       0.247899
     23 H11         35.7030    37.7360    19.4670 ha         1 2K       0.154877
     24 H12         35.8370    36.2250    14.6600 ha         1 2K       0.217915
     25 H13         34.6920    35.2300    16.6230 ha         1 2K       0.194222
     26 H14         35.2180    39.8560    20.8360 h4         1 2K       0.113431
     27 H18         33.7900    40.5680    24.9710 hn         1 2K       0.401345
     28 F2          38.2360    37.2740    14.7020 f          1 2K      -0.211155
     29 C3          32.3860    39.3430    28.5030 c3         1 2K       0.268614
     30 C4          32.8830    39.9950    27.2020 c3         1 2K      -0.350729
     31 C9          33.1620    38.9330    26.1270 c3         1 2K       0.612943
     32 C1          34.1670    37.8860    26.6360 c3         1 2K      -0.350729
     33 C2          33.6710    37.2350    27.9360 c3         1 2K       0.268614
     34 O1          33.3910    38.2970    29.0120 os         1 2K      -0.461061
     35 H5          31.4000    38.8530    28.3200 h1         1 2K       0.003679
     36 H6          32.2220    40.1260    29.2830 h1         1 2K       0.003679
     37 H7          33.8170    40.5710    27.4080 hc         1 2K       0.107719
     38 H8          32.1250    40.7260    26.8280 hc         1 2K       0.107719
     39 H10         32.2070    38.4260    25.8480 h1         1 2K      -0.029593
     40 H1          34.3310    37.1040    25.8550 hc         1 2K       0.107719
     41 H2          35.1540    38.3770    26.8180 hc         1 2K       0.107719
     42 H3          32.7370    36.6590    27.7310 h1         1 2K       0.003679
     43 H4          34.4290    36.5040    28.3100 h1         1 2K       0.003679
@<TRIPOS>BOND
     1     1     3 ar  
     2     1     7 ar  
     3     1    22 1   
     4     2    12 1   
     5     2    17 2   
     6     2    18 1   
     7     3    13 ar  
     8     3    14 1   
     9     4    16 ar  
    10     4    19 ar  
    11     4    20 1   
    12     5     6 1   
    13     5    10 ar  
    14     5    11 ar  
    15     6    12 2   
    16     6    23 1   
    17     7     8 ar  
    18     7    28 1   
    19     8     9 ar  
    20     8    24 1   
    21     9    13 ar  
    22     9    25 1   
    23    10    18 1   
    24    10    19 ar  
    25    11    16 ar  
    26    11    26 1   
    27    12    15 1   
    28    13    15 1   
    29    18    21 1   
    30    20    27 1   
    31    20    31 1   
    32    29    30 1   
    33    29    34 1   
    34    29    35 1   
    35    29    36 1   
    36    30    31 1   
    37    30    37 1   
    38    30    38 1   
    39    31    32 1   
    40    31    39 1   
    41    32    33 1   
    42    32    40 1   
    43    32    41 1   
    44    33    34 1   
    45    33    42 1   
    46    33    43 1   
@<TRIPOS>SUBSTRUCTURE
     1 2K         1 TEMP              0 ****  ****    0 ROOT
