@<TRIPOS>MOLECULE
L7H
   42    45     1     0     0
SMALL
resp


@<TRIPOS>ATOM
      1 C1          11.7880    -2.3630     1.0750 c3         1 L7H      -0.326606
      2 N1          13.1410    -2.6520     0.5830 n          1 L7H      -0.138391
      3 C2          14.2740    -2.5820     1.2970 cz         1 L7H       0.689193
      4 N2          14.3740    -2.3180     2.6050 nh         1 L7H      -0.929360
      5 N3          15.3420    -2.8320     0.5430 nh         1 L7H      -0.490022
      6 C3          15.0050    -3.1470    -0.8380 c3         1 L7H      -0.076408
      7 C4          15.5490    -2.0800    -1.8070 ca         1 L7H       0.050964
      8 C5          16.1590    -2.4450    -3.0300 ca         1 L7H      -0.161045
      9 C6          16.5920    -1.4580    -3.9270 ca         1 L7H      -0.162630
     10 C7          16.4000    -0.1000    -3.6280 ca         1 L7H      -0.071703
     11 C8          15.8190     0.3100    -2.4090 cp         1 L7H      -0.031150
     12 C9          15.5970     1.7480    -2.1180 cp         1 L7H      -0.242486
     13 C10         15.3880     2.6890    -3.1520 ca         1 L7H       0.386548
     14 N11         15.1190     3.9950    -2.9530 nb         1 L7H      -0.660167
     15 C12         15.0500     4.4400    -1.6850 ca         1 L7H       0.528259
     16 C13         15.2750     3.6150    -0.5720 ca         1 L7H      -0.373832
     17 CL1         15.1920     4.2580     1.0280 cl         1 L7H      -0.056713
     18 C14         15.5590     2.2560    -0.8000 ca         1 L7H       0.236296
     19 C15         15.4170    -0.7000    -1.1790 ca         1 L7H      -0.082358
     20 CA1         15.5680    -4.5520    -1.1180 cx         1 L7H      -0.230085
     21 CA2         14.9250    -5.8310    -0.6180 cx         1 L7H      -0.232921
     22 CA3         14.9660    -5.5370    -2.0970 cx         1 L7H      -0.232921
     23 C16         13.4680    -3.0280    -0.7570 c          1 L7H       0.606853
     24 O1          12.6380    -3.1790    -1.6590 o          1 L7H      -0.429733
     25 H1          11.0230    -2.8010     0.4330 h1         1 L7H       0.168733
     26 H2          11.6520    -2.7550     2.0830 h1         1 L7H       0.168733
     27 H3          11.6340    -1.2840     1.1020 h1         1 L7H       0.168733
     28 H4          13.5960    -2.0540     3.2060 hn         1 L7H       0.470667
     29 H5          16.3080    -2.8170     0.8780 hn         1 L7H       0.414398
     30 H6          16.2990    -3.4770    -3.3190 ha         1 L7H       0.159090
     31 H7          17.0550    -1.7420    -4.8630 ha         1 L7H       0.175238
     32 H8          16.7060     0.6260    -4.3650 ha         1 L7H       0.146071
     33 H9          15.3930     2.3810    -4.1860 h4         1 L7H       0.066186
     34 H11         14.8130     5.4860    -1.5540 h4         1 L7H       0.051607
     35 H12         15.7500     1.6090     0.0380 ha         1 L7H       0.088114
     36 H13         14.9480    -0.4100    -0.5740 ha         1 L7H       0.073680
     37 HA1         16.6550    -4.5610    -1.0760 hc         1 L7H       0.215722
     38 HA2         15.5870    -6.6130    -0.2500 hc         1 L7H       0.148195
     39 HA3         13.9560    -5.7810    -0.1270 hc         1 L7H       0.148195
     40 HA4         14.0220    -5.2920    -2.5700 hc         1 L7H       0.148195
     41 HA5         15.6530    -6.1160    -2.7130 hc         1 L7H       0.148195
     42 H14         15.2970    -2.3100     3.0400 hn         1 L7H       0.470667
@<TRIPOS>BOND
     1     1     2 1   
     2     1    25 1   
     3     1    26 1   
     4     1    27 1   
     5     2     3 2   
     6     2    23 1   
     7     3     4 1   
     8     3     5 1   
     9     4    28 1   
    10     4    42 1   
    11     5     6 1   
    12     5    29 1   
    13     6     7 1   
    14     6    20 1   
    15     6    23 1   
    16     7     8 ar  
    17     7    19 ar  
    18     8     9 ar  
    19     8    30 1   
    20     9    10 ar  
    21     9    31 1   
    22    10    11 ar  
    23    10    32 1   
    24    11    12 1   
    25    11    19 ar  
    26    12    13 ar  
    27    12    18 ar  
    28    13    14 ar  
    29    13    33 1   
    30    14    15 ar  
    31    15    16 ar  
    32    15    34 1   
    33    16    17 1   
    34    16    18 ar  
    35    18    35 1   
    36    19    36 1   
    37    20    21 1   
    38    20    22 1   
    39    20    37 1   
    40    21    22 1   
    41    21    38 1   
    42    21    39 1   
    43    22    40 1   
    44    22    41 1   
    45    23    24 2   
@<TRIPOS>SUBSTRUCTURE
     1 L7H         1 TEMP              0 ****  ****    0 ROOT
