@<TRIPOS>MOLECULE
2C
   45    48     1     0     0
SMALL
resp


@<TRIPOS>ATOM
      1  C1         31.6240    38.9530    26.1540 c3         1 2C      -0.350020
      2  C2         31.0950    38.3550    27.4680 c3         1 2C       0.254032
      3  C3         33.0540    38.9790    28.6540 c3         1 2C       0.254032
      4  C4         33.6810    39.6140    27.4030 c3         1 2C      -0.350020
      5  O1         31.6350    39.0630    28.5780 os         1 2C      -0.455183
      6  C6         34.5450    34.9770    21.1830 c          1 2C       0.675216
      7  C8         34.0440    38.9760    23.7380 ca         1 2C       1.159164
      8  C9         33.1560    38.9290    26.1330 c3         1 2C       0.622268
      9  C10        34.8030    37.8110    21.4410 ca         1 2C      -0.373255
     10  C11        35.2540    37.1250    20.2340 cc         1 2C      -0.066492
     11  C15        34.3070    37.0370    22.5110 ca         1 2C       0.528156
     12  C16        34.8520    39.2090    21.6170 ca         1 2C       0.412521
     13  C19        33.6690    34.8320    23.4620 c3         1 2C      -0.226817
     14  N1         34.4790    39.7920    22.7770 nb         1 2C      -0.830618
     15  O3         34.3290    33.7760    21.0230 o          1 2C      -0.572874
     16  N2         34.2120    35.6180    22.3420 n          1 2C      -0.154883
     17  N3         33.9310    37.6500    23.6560 nb         1 2C      -0.725492
     18  N4         33.6720    39.5650    24.9270 nh         1 2C      -1.004006
     19  H1         31.2200    38.4000    25.3050 hc         1 2C       0.109130
     20  H2         31.2770    39.9810    26.0540 hc         1 2C       0.109130
     21  H3         30.0100    38.4340    27.5070 h1         1 2C       0.008550
     22  H4         31.3430    37.2950    27.5440 h1         1 2C       0.008550
     23  H5         33.3650    37.9380    28.7610 h1         1 2C       0.008550
     24  H6         33.3890    39.5050    29.5480 h1         1 2C       0.008550
     25  H7         33.4270    40.6740    27.3920 hc         1 2C       0.109130
     26  H8         34.7680    39.5450    27.4510 hc         1 2C       0.109130
     27  H10        33.4880    37.8910    26.1540 h1         1 2C      -0.043098
     28  H11        35.7030    37.7360    19.4670 ha         1 2C       0.151488
     29  H14        35.2180    39.8560    20.8360 h4         1 2C       0.105585
     30  H15        34.0540    35.1880    24.4180 h1         1 2C       0.111195
     31  H16        32.5820    34.9190    23.4830 h1         1 2C       0.111195
     32  H17        33.9200    33.7710    23.4230 h1         1 2C       0.111195
     33  H18        33.7900    40.5680    24.9710 hn         1 2C       0.404778
     34  C17        35.1940    35.7470    20.0600 cd         1 2C      -0.328209
     35  CT1        36.7450    33.8220    16.5750 ca         1 2C      -0.190393
     36  CT2        36.8300    35.2180    16.7030 ca         1 2C      -0.077992
     37  CT3        36.3200    35.8510    17.8490 ca         1 2C      -0.075355
     38  CT4        35.7250    35.0880    18.8660 ca         1 2C       0.347008
     39  CT5        35.6400    33.6920    18.7390 ca         1 2C      -0.306545
     40  CT6        36.1490    33.0590    17.5930 ca         1 2C      -0.088827
     41 CLT1        36.4250    37.5710    18.0060 cl         1 2C      -0.117112
     42  HT1        37.1450    33.3250    15.6750 ha         1 2C       0.156373
     43  HT2        37.2980    35.8180    15.9030 ha         1 2C       0.134787
     44  HT3        35.1720    33.0920    19.5380 ha         1 2C       0.184613
     45  HT4        36.0820    31.9620    17.4930 ha         1 2C       0.142866
@<TRIPOS>BOND
     1     1     2 1   
     2     1     8 1   
     3     1    19 1   
     4     1    20 1   
     5     2     5 1   
     6     2    21 1   
     7     2    22 1   
     8     3     4 1   
     9     3     5 1   
    10     3    23 1   
    11     3    24 1   
    12     4     8 1   
    13     4    25 1   
    14     4    26 1   
    15     6    15 2   
    16     6    16 1   
    17     6    34 1   
    18     7    14 ar  
    19     7    17 ar  
    20     7    18 1   
    21     8    18 1   
    22     8    27 1   
    23     9    10 1   
    24     9    11 ar  
    25     9    12 ar  
    26    10    28 1   
    27    10    34 2   
    28    11    16 1   
    29    11    17 ar  
    30    12    14 ar  
    31    12    29 1   
    32    13    16 1   
    33    13    30 1   
    34    13    31 1   
    35    13    32 1   
    36    18    33 1   
    37    34    38 1   
    38    35    36 ar  
    39    35    40 ar  
    40    35    42 1   
    41    36    37 ar  
    42    36    43 1   
    43    37    38 ar  
    44    37    41 1   
    45    38    39 ar  
    46    39    40 ar  
    47    39    44 1   
    48    40    45 1   
@<TRIPOS>SUBSTRUCTURE
     1 2C         1 TEMP              0 ****  ****    0 ROOT
